<?xml version="1.0" encoding="UTF-8"?>

<!-- generated on Wed May  8 16:08:28 2019 by SUMO netconvert Version dev-SVN-rUNKNOWN
<?xml version="1.0" encoding="UTF-8"?>

<configuration xmlns:xsi="http://www.w3.org/2001/XMLSchema-instance" xsi:noNamespaceSchemaLocation="http://sumo.dlr.de/xsd/netconvertConfiguration.xsd">

    <input>
        <osm-files value="anza_balboa_25th.osm"/>
    </input>

    <output>
        <output-file value="01_sf_anza_balboa.net.xml"/>
    </output>

    <projection>
        <proj.utm value="true"/>
    </projection>

</configuration>
-->

<net version="0.27" xmlns:xsi="http://www.w3.org/2001/XMLSchema-instance" xsi:noNamespaceSchemaLocation="http://sumo.dlr.de/xsd/net_file.xsd">

    <location netOffset="-545103.03,-4180913.75" convBoundary="0.00,0.00,578.48,633.04" origBoundary="-122.487824,37.774444,-122.481266,37.780133" projParameter="+proj=utm +zone=10 +ellps=WGS84 +datum=WGS84 +units=m +no_defs"/>

    <type id="highway.bridleway" priority="1" numLanes="1" speed="2.78" allow="pedestrian" oneway="1" width="2.00"/>
    <type id="highway.bus_guideway" priority="1" numLanes="1" speed="8.33" allow="bus" oneway="1"/>
    <type id="highway.cycleway" priority="1" numLanes="1" speed="5.56" allow="bicycle" oneway="0" width="1.00"/>
    <type id="highway.footway" priority="1" numLanes="1" speed="2.78" allow="pedestrian" oneway="1" width="2.00"/>
    <type id="highway.ford" priority="1" numLanes="1" speed="2.78" allow="army" oneway="0"/>
    <type id="highway.living_street" priority="3" numLanes="1" speed="2.78" disallow="tram rail_urban rail rail_electric ship" oneway="0"/>
    <type id="highway.motorway" priority="13" numLanes="2" speed="44.44" allow="private emergency authority army vip passenger hov taxi bus coach delivery truck trailer motorcycle evehicle custom1 custom2" oneway="1"/>
    <type id="highway.motorway_link" priority="12" numLanes="1" speed="22.22" allow="private emergency authority army vip passenger hov taxi bus coach delivery truck trailer motorcycle evehicle custom1 custom2" oneway="1"/>
    <type id="highway.path" priority="1" numLanes="1" speed="2.78" allow="bicycle pedestrian" oneway="1" width="2.00"/>
    <type id="highway.pedestrian" priority="1" numLanes="1" speed="2.78" allow="pedestrian" oneway="1" width="2.00"/>
    <type id="highway.primary" priority="9" numLanes="2" speed="27.78" disallow="tram rail_urban rail rail_electric ship" oneway="0"/>
    <type id="highway.primary_link" priority="8" numLanes="1" speed="22.22" disallow="tram rail_urban rail rail_electric ship" oneway="0"/>
    <type id="highway.raceway" priority="14" numLanes="2" speed="83.33" allow="vip" oneway="0"/>
    <type id="highway.residential" priority="4" numLanes="1" speed="13.89" disallow="tram rail_urban rail rail_electric ship" oneway="0"/>
    <type id="highway.secondary" priority="7" numLanes="2" speed="27.78" disallow="tram rail_urban rail rail_electric ship" oneway="0"/>
    <type id="highway.secondary_link" priority="6" numLanes="1" speed="22.22" disallow="tram rail_urban rail rail_electric ship" oneway="0"/>
    <type id="highway.service" priority="2" numLanes="1" speed="5.56" allow="delivery bicycle pedestrian" oneway="0"/>
    <type id="highway.services" priority="1" numLanes="1" speed="8.33" disallow="tram rail_urban rail rail_electric ship" oneway="0"/>
    <type id="highway.stairs" priority="1" numLanes="1" speed="1.39" allow="pedestrian" oneway="1" width="2.00"/>
    <type id="highway.step" priority="1" numLanes="1" speed="1.39" allow="pedestrian" oneway="1" width="2.00"/>
    <type id="highway.steps" priority="1" numLanes="1" speed="1.39" allow="pedestrian" oneway="1" width="2.00"/>
    <type id="highway.tertiary" priority="6" numLanes="1" speed="22.22" disallow="tram rail_urban rail rail_electric ship" oneway="0"/>
    <type id="highway.tertiary_link" priority="5" numLanes="1" speed="22.22" disallow="tram rail_urban rail rail_electric ship" oneway="0"/>
    <type id="highway.track" priority="1" numLanes="1" speed="5.56" disallow="tram rail_urban rail rail_electric ship" oneway="0"/>
    <type id="highway.trunk" priority="11" numLanes="2" speed="27.78" disallow="tram rail_urban rail rail_electric bicycle pedestrian ship" oneway="0"/>
    <type id="highway.trunk_link" priority="10" numLanes="1" speed="22.22" disallow="tram rail_urban rail rail_electric bicycle pedestrian ship" oneway="0"/>
    <type id="highway.unclassified" priority="5" numLanes="1" speed="13.89" disallow="tram rail_urban rail rail_electric ship" oneway="0"/>
    <type id="highway.unsurfaced" priority="1" numLanes="1" speed="8.33" disallow="tram rail_urban rail rail_electric ship" oneway="0"/>
    <type id="railway.light_rail" priority="15" numLanes="1" speed="27.78" allow="rail_urban" oneway="1"/>
    <type id="railway.preserved" priority="15" numLanes="1" speed="27.78" allow="rail" oneway="1"/>
    <type id="railway.rail" priority="15" numLanes="1" speed="83.33" allow="rail rail_electric" oneway="1"/>
    <type id="railway.subway" priority="15" numLanes="1" speed="27.78" allow="rail_urban" oneway="1"/>
    <type id="railway.tram" priority="15" numLanes="1" speed="13.89" allow="tram" oneway="1"/>

    <edge id=":258911633_0" function="internal">
        <lane id=":258911633_0_0" index="0" disallow="tram rail_urban rail rail_electric ship" speed="13.89" length="4.82" shape="459.85,633.14 458.94,634.33 458.09,634.69 457.30,634.22 456.55,632.94"/>
    </edge>
    <edge id=":258911635_0" function="internal">
        <lane id=":258911635_0_0" index="0" disallow="tram rail_urban rail rail_electric ship" speed="13.89" length="4.82" shape="365.78,627.21 364.88,628.39 364.03,628.75 363.24,628.29 362.49,627.00"/>
    </edge>
    <edge id=":258911637_0" function="internal">
        <lane id=":258911637_0_0" index="0" disallow="tram rail_urban rail rail_electric ship" speed="27.78" length="4.82" shape="271.38,621.37 270.39,622.48 269.52,622.77 268.76,622.25 268.11,620.91"/>
    </edge>
    <edge id=":258911640_0" function="internal">
        <lane id=":258911640_0_0" index="0" disallow="tram rail_urban rail rail_electric ship" speed="13.89" length="4.82" shape="177.17,615.31 176.27,616.49 175.42,616.85 174.62,616.39 173.87,615.10"/>
    </edge>
    <edge id=":258911641_0" function="internal">
        <lane id=":258911641_0_0" index="0" disallow="tram rail_urban rail rail_electric ship" speed="13.89" length="4.82" shape="82.90,609.37 82.00,610.55 81.15,610.91 80.35,610.45 79.61,609.16"/>
    </edge>
    <edge id=":3997910114_0" function="internal">
        <lane id=":3997910114_0_0" index="0" disallow="tram rail_urban rail rail_electric ship" speed="22.22" length="2.96" shape="215.38,204.03 212.43,203.86"/>
    </edge>
    <edge id=":3997910114_1" function="internal">
        <lane id=":3997910114_1_0" index="0" disallow="tram rail_urban rail rail_electric ship" speed="22.22" length="2.41" shape="215.38,204.03 214.20,203.12 213.84,202.27"/>
    </edge>
    <edge id=":3997910114_5" function="internal">
        <lane id=":3997910114_5_0" index="0" speed="22.22" length="2.41" shape="213.84,202.27 214.30,201.48 215.59,200.73"/>
    </edge>
    <edge id=":3997910114_2" function="internal">
        <lane id=":3997910114_2_0" index="0" disallow="tram rail_urban rail rail_electric ship" speed="22.22" length="3.74" shape="212.59,200.56 215.80,197.44"/>
        <lane id=":3997910114_2_1" index="1" disallow="tram rail_urban rail rail_electric ship" speed="22.22" length="3.74" shape="212.59,200.56 215.59,200.73"/>
    </edge>
    <edge id=":3997910114_4" function="internal">
        <lane id=":3997910114_4_0" index="0" disallow="tram rail_urban rail rail_electric ship" speed="22.22" length="2.41" shape="212.59,200.56 213.79,201.45 214.16,202.29"/>
    </edge>
    <edge id=":3997910114_6" function="internal">
        <lane id=":3997910114_6_0" index="0" speed="22.22" length="2.41" shape="214.16,202.29 213.71,203.09 212.43,203.86"/>
    </edge>
    <edge id=":4179442961_0" function="internal">
        <lane id=":4179442961_0_0" index="0" disallow="tram rail_urban rail rail_electric ship" speed="27.78" length="3.75" shape="309.75,13.74 312.95,16.89"/>
        <lane id=":4179442961_0_1" index="1" disallow="tram rail_urban rail rail_electric ship" speed="27.78" length="3.75" shape="309.75,13.74 309.66,16.75"/>
    </edge>
    <edge id=":4179442961_2" function="internal">
        <lane id=":4179442961_2_0" index="0" disallow="tram rail_urban rail rail_electric ship" speed="27.78" length="2.41" shape="309.75,13.74 308.90,14.97 308.07,15.36"/>
    </edge>
    <edge id=":4179442961_6" function="internal">
        <lane id=":4179442961_6_0" index="0" speed="27.78" length="2.41" shape="308.07,15.36 307.25,14.94 306.45,13.68"/>
    </edge>
    <edge id=":4179442961_3" function="internal">
        <lane id=":4179442961_3_0" index="0" disallow="tram rail_urban rail rail_electric ship" speed="27.78" length="3.66" shape="306.36,16.61 303.15,13.62"/>
        <lane id=":4179442961_3_1" index="1" disallow="tram rail_urban rail rail_electric ship" speed="27.78" length="3.66" shape="306.36,16.61 306.45,13.68"/>
    </edge>
    <edge id=":4179442961_5" function="internal">
        <lane id=":4179442961_5_0" index="0" disallow="tram rail_urban rail rail_electric ship" speed="27.78" length="2.41" shape="306.36,16.61 307.23,15.41 308.08,15.04"/>
    </edge>
    <edge id=":4179442961_7" function="internal">
        <lane id=":4179442961_7_0" index="0" speed="27.78" length="2.41" shape="308.08,15.04 308.88,15.48 309.66,16.75"/>
    </edge>
    <edge id=":4179442962_0" function="internal">
        <lane id=":4179442962_0_0" index="0" disallow="tram rail_urban rail rail_electric ship" speed="27.78" length="0.31" shape="312.39,30.28 312.37,30.63"/>
        <lane id=":4179442962_0_1" index="1" disallow="tram rail_urban rail rail_electric ship" speed="27.78" length="0.31" shape="309.09,30.14 309.07,30.41"/>
    </edge>
    <edge id=":4179442962_2" function="internal">
        <lane id=":4179442962_2_0" index="0" disallow="tram rail_urban rail rail_electric ship" speed="27.78" length="2.41" shape="309.09,30.14 308.21,31.34 307.37,31.72"/>
    </edge>
    <edge id=":4179442962_5" function="internal">
        <lane id=":4179442962_5_0" index="0" speed="27.78" length="2.41" shape="307.37,31.72 306.56,31.27 305.79,30.00"/>
    </edge>
    <edge id=":4179442962_3" function="internal">
        <lane id=":4179442962_3_0" index="0" disallow="tram rail_urban rail rail_electric ship" speed="27.78" length="0.20" shape="305.78,30.19 305.79,30.00"/>
    </edge>
    <edge id=":4179442962_4" function="internal">
        <lane id=":4179442962_4_0" index="0" disallow="tram rail_urban rail rail_electric ship" speed="27.78" length="2.41" shape="305.78,30.19 306.69,29.01 307.54,28.66"/>
    </edge>
    <edge id=":4179442962_6" function="internal">
        <lane id=":4179442962_6_0" index="0" speed="27.78" length="2.41" shape="307.54,28.66 308.33,29.12 309.07,30.41"/>
    </edge>
    <edge id=":4179442963_0" function="internal">
        <lane id=":4179442963_0_0" index="0" disallow="tram rail_urban rail rail_electric ship" speed="27.78" length="3.75" shape="291.15,307.50 294.22,310.77"/>
        <lane id=":4179442963_0_1" index="1" disallow="tram rail_urban rail rail_electric ship" speed="27.78" length="3.75" shape="291.15,307.50 290.93,310.50"/>
    </edge>
    <edge id=":4179442963_2" function="internal">
        <lane id=":4179442963_2_0" index="0" disallow="tram rail_urban rail rail_electric ship" speed="27.78" length="2.41" shape="291.15,307.50 290.25,308.68 289.40,309.04"/>
    </edge>
    <edge id=":4179442963_6" function="internal">
        <lane id=":4179442963_6_0" index="0" speed="27.78" length="2.41" shape="289.40,309.04 288.60,308.58 287.86,307.29"/>
    </edge>
    <edge id=":4179442963_3" function="internal">
        <lane id=":4179442963_3_0" index="0" disallow="tram rail_urban rail rail_electric ship" speed="27.78" length="3.68" shape="287.64,310.23 284.56,307.09"/>
        <lane id=":4179442963_3_1" index="1" disallow="tram rail_urban rail rail_electric ship" speed="27.78" length="3.68" shape="287.64,310.23 287.86,307.29"/>
    </edge>
    <edge id=":4179442963_5" function="internal">
        <lane id=":4179442963_5_0" index="0" disallow="tram rail_urban rail rail_electric ship" speed="27.78" length="2.41" shape="287.64,310.23 288.57,309.07 289.42,308.72"/>
    </edge>
    <edge id=":4179442963_7" function="internal">
        <lane id=":4179442963_7_0" index="0" speed="27.78" length="2.41" shape="289.42,308.72 290.21,309.20 290.93,310.50"/>
    </edge>
    <edge id=":4179442964_0" function="internal">
        <lane id=":4179442964_0_0" index="0" disallow="tram rail_urban rail rail_electric ship" speed="27.78" length="0.25" shape="294.08,312.46 294.07,312.68"/>
        <lane id=":4179442964_0_1" index="1" disallow="tram rail_urban rail rail_electric ship" speed="27.78" length="0.25" shape="290.79,312.19 290.77,312.47"/>
    </edge>
    <edge id=":4179442964_2" function="internal">
        <lane id=":4179442964_2_0" index="0" disallow="tram rail_urban rail rail_electric ship" speed="27.78" length="2.41" shape="290.79,312.19 289.87,313.36 289.01,313.70"/>
    </edge>
    <edge id=":4179442964_5" function="internal">
        <lane id=":4179442964_5_0" index="0" speed="27.78" length="2.41" shape="289.01,313.70 288.23,313.22 287.50,311.92"/>
    </edge>
    <edge id=":4179442964_3" function="internal">
        <lane id=":4179442964_3_0" index="0" disallow="tram rail_urban rail rail_electric ship" speed="27.78" length="0.35" shape="287.48,312.27 287.50,311.92"/>
    </edge>
    <edge id=":4179442964_4" function="internal">
        <lane id=":4179442964_4_0" index="0" disallow="tram rail_urban rail rail_electric ship" speed="27.78" length="2.41" shape="287.48,312.27 288.38,311.08 289.23,310.72"/>
    </edge>
    <edge id=":4179442964_6" function="internal">
        <lane id=":4179442964_6_0" index="0" speed="27.78" length="2.41" shape="289.23,310.72 290.03,311.19 290.77,312.47"/>
    </edge>
    <edge id=":4179454629_0" function="internal">
        <lane id=":4179454629_0_0" index="0" disallow="tram rail_urban rail rail_electric ship" speed="27.78" length="0.74" shape="276.35,609.40 276.34,609.67 276.33,609.86 276.31,610.05 276.27,610.32"/>
        <lane id=":4179454629_0_1" index="1" disallow="tram rail_urban rail rail_electric ship" speed="27.78" length="0.74" shape="273.05,609.31 273.05,609.47 273.04,609.59 273.03,609.70 273.01,609.86"/>
    </edge>
    <edge id=":4179454629_2" function="internal">
        <lane id=":4179454629_2_0" index="0" disallow="tram rail_urban rail rail_electric ship" speed="27.78" length="2.41" shape="273.05,609.31 272.19,610.52 271.36,610.91"/>
    </edge>
    <edge id=":4179454629_5" function="internal">
        <lane id=":4179454629_5_0" index="0" speed="27.78" length="2.41" shape="271.36,610.91 270.54,610.48 269.75,609.22"/>
    </edge>
    <edge id=":4179454629_3" function="internal">
        <lane id=":4179454629_3_0" index="0" disallow="tram rail_urban rail rail_electric ship" speed="27.78" length="0.18" shape="269.74,609.40 269.75,609.34 269.75,609.31 269.75,609.27 269.75,609.22"/>
    </edge>
    <edge id=":4179454629_4" function="internal">
        <lane id=":4179454629_4_0" index="0" disallow="tram rail_urban rail rail_electric ship" speed="27.78" length="2.41" shape="269.74,609.40 270.73,608.29 271.60,607.99"/>
    </edge>
    <edge id=":4179454629_6" function="internal">
        <lane id=":4179454629_6_0" index="0" speed="27.78" length="2.41" shape="271.60,607.99 272.36,608.52 273.01,609.86"/>
    </edge>
    <edge id=":4184219689_0" function="internal">
        <lane id=":4184219689_0_0" index="0" disallow="tram rail_urban rail rail_electric ship" speed="27.78" length="3.62" shape="273.44,597.17 276.61,600.15"/>
        <lane id=":4184219689_0_1" index="1" disallow="tram rail_urban rail rail_electric ship" speed="27.78" length="3.62" shape="273.44,597.17 273.31,600.06"/>
    </edge>
    <edge id=":4184219689_2" function="internal">
        <lane id=":4184219689_2_0" index="0" disallow="tram rail_urban rail rail_electric ship" speed="27.78" length="2.41" shape="273.44,597.17 272.54,598.35 271.69,598.72"/>
    </edge>
    <edge id=":4184219689_6" function="internal">
        <lane id=":4184219689_6_0" index="0" speed="27.78" length="2.41" shape="271.69,598.72 270.89,598.25 270.14,596.97"/>
    </edge>
    <edge id=":4184219689_3" function="internal">
        <lane id=":4184219689_3_0" index="0" disallow="tram rail_urban rail rail_electric ship" speed="27.78" length="3.75" shape="270.01,599.97 266.85,596.77"/>
        <lane id=":4184219689_3_1" index="1" disallow="tram rail_urban rail rail_electric ship" speed="27.78" length="3.75" shape="270.01,599.97 270.14,596.97"/>
    </edge>
    <edge id=":4184219689_5" function="internal">
        <lane id=":4184219689_5_0" index="0" disallow="tram rail_urban rail rail_electric ship" speed="27.78" length="2.41" shape="270.01,599.97 270.87,598.75 271.70,598.36"/>
    </edge>
    <edge id=":4184219689_7" function="internal">
        <lane id=":4184219689_7_0" index="0" speed="27.78" length="2.41" shape="271.70,598.36 272.52,598.80 273.31,600.06"/>
    </edge>
    <edge id=":5433783395_0" function="internal">
        <lane id=":5433783395_0_0" index="0" allow="delivery bicycle pedestrian" speed="5.56" length="5.00" shape="330.43,96.04 331.80,95.94 332.80,95.42 333.44,94.49 333.72,93.14"/>
    </edge>
    <edge id=":5433783395_1" function="internal">
        <lane id=":5433783395_1_0" index="0" allow="delivery bicycle pedestrian" speed="5.56" length="6.20" shape="330.43,96.04 336.62,96.44"/>
    </edge>
    <edge id=":5433783396_0" function="internal">
        <lane id=":5433783396_0_0" index="0" allow="delivery bicycle pedestrian" speed="5.56" length="6.20" shape="364.80,95.18 364.40,101.37"/>
    </edge>
    <edge id=":5433783396_1" function="internal">
        <lane id=":5433783396_1_0" index="0" allow="delivery bicycle pedestrian" speed="5.56" length="5.00" shape="361.50,98.07 362.85,98.36 363.78,99.00 364.29,100.00 364.40,101.37"/>
    </edge>
    <edge id=":5433783397_0" function="internal">
        <lane id=":5433783397_0_0" index="0" allow="delivery bicycle pedestrian" speed="5.56" length="2.58" shape="318.72,96.89 318.86,96.20 319.19,95.72 319.71,95.45 320.42,95.40"/>
    </edge>
    <edge id=":5433783399_0" function="internal">
        <lane id=":5433783399_0_0" index="0" allow="delivery bicycle pedestrian" speed="5.56" length="4.68" shape="363.84,110.07 363.58,111.41 363.01,112.34 362.14,112.87 360.95,112.99"/>
    </edge>
    <edge id=":5433783400_0" function="internal">
        <lane id=":5433783400_0_0" index="0" allow="delivery bicycle pedestrian" speed="5.56" length="5.00" shape="362.63,80.66 363.97,80.94 364.90,81.59 365.42,82.59 365.53,83.96"/>
    </edge>
    <edge id=":5433783401_0" function="internal">
        <lane id=":5433783401_0_0" index="0" allow="delivery bicycle pedestrian" speed="5.56" length="2.59" shape="334.51,80.43 334.65,79.74 334.98,79.25 335.50,78.99 336.21,78.93"/>
    </edge>
    <edge id=":5433789638_0" function="internal">
        <lane id=":5433789638_0_0" index="0" allow="delivery bicycle pedestrian" speed="5.56" length="3.78" shape="293.30,587.78 292.64,587.93 292.15,588.48 291.81,589.43 291.63,590.78"/>
    </edge>
    <edge id=":5433789638_1" function="internal">
        <lane id=":5433789638_1_0" index="0" allow="delivery bicycle pedestrian" speed="5.56" length="4.57" shape="293.30,587.78 288.74,587.47"/>
    </edge>
    <edge id=":5433789638_2" function="internal">
        <lane id=":5433789638_2_0" index="0" allow="delivery bicycle pedestrian" speed="5.56" length="4.83" shape="293.30,587.78 292.06,586.94 291.66,586.11 292.08,585.29 293.33,584.48"/>
    </edge>
    <edge id=":5433789638_3" function="internal">
        <lane id=":5433789638_3_0" index="0" allow="delivery bicycle pedestrian" speed="5.56" length="4.37" shape="288.96,584.18 293.33,584.48"/>
    </edge>
    <edge id=":5433789638_4" function="internal">
        <lane id=":5433789638_4_0" index="0" allow="delivery bicycle pedestrian" speed="5.56" length="7.85" shape="288.96,584.18 290.29,584.67 291.17,585.93 291.62,587.97 291.63,590.78"/>
    </edge>
    <edge id=":5433789638_5" function="internal">
        <lane id=":5433789638_5_0" index="0" allow="delivery bicycle pedestrian" speed="5.56" length="4.82" shape="288.96,584.18 290.14,585.09 290.50,585.94 290.03,586.73 288.74,587.47"/>
    </edge>
    <edge id=":5433789640_0" function="internal">
        <lane id=":5433789640_0_0" index="0" allow="delivery bicycle pedestrian" speed="5.56" length="4.73" shape="297.54,588.07 296.32,588.18 295.43,588.71 294.86,589.65 294.60,591.00"/>
    </edge>
    <edge id=":5433789640_1" function="internal">
        <lane id=":5433789640_1_0" index="0" allow="delivery bicycle pedestrian" speed="5.56" length="4.05" shape="297.54,588.07 293.50,587.80"/>
    </edge>
    <edge id=":5433789640_2" function="internal">
        <lane id=":5433789640_2_0" index="0" allow="delivery bicycle pedestrian" speed="5.56" length="4.82" shape="297.54,588.07 296.36,587.16 296.00,586.31 296.47,585.52 297.76,584.78"/>
    </edge>
    <edge id=":5433789640_3" function="internal">
        <lane id=":5433789640_3_0" index="0" allow="delivery bicycle pedestrian" speed="5.56" length="4.25" shape="293.53,584.49 297.76,584.78"/>
    </edge>
    <edge id=":5433789640_4" function="internal">
        <lane id=":5433789640_4_0" index="0" allow="delivery bicycle pedestrian" speed="5.56" length="6.88" shape="293.53,584.49 294.14,584.93 294.52,586.17 294.68,588.19 294.60,591.00"/>
    </edge>
    <edge id=":5433789640_5" function="internal">
        <lane id=":5433789640_5_0" index="0" allow="delivery bicycle pedestrian" speed="5.56" length="4.83" shape="293.53,584.49 294.76,585.33 295.16,586.16 294.74,586.98 293.50,587.80"/>
    </edge>
    <edge id=":5433789641_0" function="internal">
        <lane id=":5433789641_0_0" index="0" allow="delivery bicycle pedestrian" speed="5.56" length="4.82" shape="297.86,584.79 299.04,585.69 299.40,586.54 298.93,587.34 297.64,588.08"/>
    </edge>
    <edge id=":5433789642_0" function="internal">
        <lane id=":5433789642_0_0" index="0" allow="delivery bicycle pedestrian" speed="5.56" length="4.82" shape="284.48,587.18 283.30,586.28 282.94,585.43 283.41,584.63 284.70,583.89"/>
    </edge>
    <edge id=":5433789644_0" function="internal">
        <lane id=":5433789644_0_0" index="0" allow="delivery bicycle pedestrian" speed="5.56" length="4.82" shape="338.70,592.42 337.50,591.55 337.11,590.71 337.56,589.90 338.83,589.13"/>
    </edge>
    <edge id=":5433789645_0" function="internal">
        <lane id=":5433789645_0_0" index="0" allow="delivery bicycle pedestrian" speed="5.56" length="0.15" shape="353.16,592.97 353.00,592.96"/>
    </edge>
    <edge id=":5433789645_1" function="internal">
        <lane id=":5433789645_1_0" index="0" allow="delivery bicycle pedestrian" speed="5.56" length="2.41" shape="353.16,592.97 351.99,592.05 351.64,591.20"/>
    </edge>
    <edge id=":5433789645_4" function="internal">
        <lane id=":5433789645_4_0" index="0" speed="5.56" length="2.41" shape="351.64,591.20 352.12,590.41 353.41,589.68"/>
    </edge>
    <edge id=":5433789645_2" function="internal">
        <lane id=":5433789645_2_0" index="0" allow="delivery bicycle pedestrian" speed="5.56" length="0.29" shape="353.13,589.67 353.41,589.68"/>
    </edge>
    <edge id=":5433789645_3" function="internal">
        <lane id=":5433789645_3_0" index="0" allow="delivery bicycle pedestrian" speed="5.56" length="2.41" shape="353.13,589.67 354.33,590.54 354.72,591.38"/>
    </edge>
    <edge id=":5433789645_5" function="internal">
        <lane id=":5433789645_5_0" index="0" speed="5.56" length="2.41" shape="354.72,591.38 354.27,592.19 353.00,592.96"/>
    </edge>
    <edge id=":5433789646_0" function="internal">
        <lane id=":5433789646_0_0" index="0" disallow="tram rail_urban rail rail_electric ship" speed="13.89" length="9.50" shape="368.28,587.66 367.68,597.14"/>
    </edge>
    <edge id=":5433789646_1" function="internal">
        <lane id=":5433789646_1_0" index="0" allow="delivery bicycle pedestrian" speed="9.73" length="5.20" shape="368.28,587.66 367.69,590.46 366.36,592.38"/>
    </edge>
    <edge id=":5433789646_2" function="internal">
        <lane id=":5433789646_2_0" index="0" disallow="tram rail_urban rail rail_electric ship" speed="13.89" length="2.41" shape="368.28,587.66 367.37,588.84 366.53,589.20"/>
    </edge>
    <edge id=":5433789646_9" function="internal">
        <lane id=":5433789646_9_0" index="0" speed="9.73" length="5.20" shape="366.36,592.38 364.26,593.43 361.41,593.62"/>
    </edge>
    <edge id=":5433789646_10" function="internal">
        <lane id=":5433789646_10_0" index="0" speed="13.89" length="2.41" shape="366.53,589.20 365.73,588.74 364.98,587.45"/>
    </edge>
    <edge id=":5433789646_3" function="internal">
        <lane id=":5433789646_3_0" index="0" disallow="tram rail_urban rail rail_electric ship" speed="9.73" length="5.02" shape="361.67,590.33 363.05,590.24 364.06,589.73 364.70,588.80 364.98,587.45"/>
    </edge>
    <edge id=":5433789646_4" function="internal">
        <lane id=":5433789646_4_0" index="0" disallow="tram rail_urban rail rail_electric ship" speed="9.73" length="10.33" shape="361.67,590.33 364.45,590.94 366.38,592.28 367.45,594.35 367.68,597.14"/>
    </edge>
    <edge id=":5433789646_5" function="internal">
        <lane id=":5433789646_5_0" index="0" allow="delivery bicycle pedestrian" speed="5.56" length="4.82" shape="361.67,590.33 362.84,591.25 363.19,592.10 362.71,592.89 361.41,593.62"/>
    </edge>
    <edge id=":5433789646_6" function="internal">
        <lane id=":5433789646_6_0" index="0" allow="delivery bicycle pedestrian" speed="9.73" length="5.06" shape="364.38,596.93 364.27,595.58 363.74,594.57 362.79,593.92 361.41,593.62"/>
    </edge>
    <edge id=":5433789646_7" function="internal">
        <lane id=":5433789646_7_0" index="0" disallow="tram rail_urban rail rail_electric ship" speed="13.89" length="9.50" shape="364.38,596.93 364.98,587.45"/>
    </edge>
    <edge id=":5433789646_8" function="internal">
        <lane id=":5433789646_8_0" index="0" disallow="tram rail_urban rail rail_electric ship" speed="13.89" length="2.41" shape="364.38,596.93 365.29,595.75 366.14,595.39"/>
    </edge>
    <edge id=":5433789646_11" function="internal">
        <lane id=":5433789646_11_0" index="0" speed="13.89" length="2.41" shape="366.14,595.39 366.93,595.86 367.68,597.14"/>
    </edge>
    <edge id=":5433789651_0" function="internal">
        <lane id=":5433789651_0_0" index="0" allow="delivery bicycle pedestrian" speed="5.56" length="0.18" shape="73.56,576.50 73.37,576.49"/>
    </edge>
    <edge id=":5433789651_1" function="internal">
        <lane id=":5433789651_1_0" index="0" allow="delivery bicycle pedestrian" speed="5.56" length="2.41" shape="73.56,576.50 72.40,575.56 72.07,574.70"/>
    </edge>
    <edge id=":5433789651_4" function="internal">
        <lane id=":5433789651_4_0" index="0" speed="5.56" length="2.41" shape="72.07,574.70 72.56,573.92 73.88,573.22"/>
    </edge>
    <edge id=":5433789651_2" function="internal">
        <lane id=":5433789651_2_0" index="0" allow="delivery bicycle pedestrian" speed="5.56" length="0.30" shape="73.58,573.19 73.88,573.22"/>
    </edge>
    <edge id=":5433789651_3" function="internal">
        <lane id=":5433789651_3_0" index="0" allow="delivery bicycle pedestrian" speed="5.56" length="2.41" shape="73.58,573.19 74.76,574.09 75.12,574.94"/>
    </edge>
    <edge id=":5433789651_5" function="internal">
        <lane id=":5433789651_5_0" index="0" speed="5.56" length="2.41" shape="75.12,574.94 74.66,575.74 73.37,576.49"/>
    </edge>
    <edge id=":5433789652_0" function="internal">
        <lane id=":5433789652_0_0" index="0" allow="delivery bicycle pedestrian" speed="5.56" length="0.29" shape="72.37,591.67 72.08,591.65"/>
    </edge>
    <edge id=":5433789652_1" function="internal">
        <lane id=":5433789652_1_0" index="0" allow="delivery bicycle pedestrian" speed="5.56" length="2.41" shape="72.37,591.67 71.17,590.79 70.80,589.95"/>
    </edge>
    <edge id=":5433789652_4" function="internal">
        <lane id=":5433789652_4_0" index="0" speed="5.56" length="2.41" shape="70.80,589.95 71.25,589.14 72.52,588.38"/>
    </edge>
    <edge id=":5433789652_2" function="internal">
        <lane id=":5433789652_2_0" index="0" allow="delivery bicycle pedestrian" speed="5.56" length="0.16" shape="72.36,588.36 72.52,588.38"/>
    </edge>
    <edge id=":5433789652_3" function="internal">
        <lane id=":5433789652_3_0" index="0" allow="delivery bicycle pedestrian" speed="5.56" length="2.41" shape="72.36,588.36 73.52,589.29 73.86,590.15"/>
    </edge>
    <edge id=":5433789652_5" function="internal">
        <lane id=":5433789652_5_0" index="0" speed="5.56" length="2.41" shape="73.86,590.15 73.38,590.94 72.08,591.65"/>
    </edge>
    <edge id=":5433789653_0" function="internal">
        <lane id=":5433789653_0_0" index="0" disallow="tram rail_urban rail rail_electric ship" speed="13.89" length="9.50" shape="85.31,571.05 84.72,580.53"/>
    </edge>
    <edge id=":5433789653_1" function="internal">
        <lane id=":5433789653_1_0" index="0" allow="delivery bicycle pedestrian" speed="9.73" length="5.25" shape="85.31,571.05 84.72,573.88 83.37,575.81"/>
    </edge>
    <edge id=":5433789653_2" function="internal">
        <lane id=":5433789653_2_0" index="0" disallow="tram rail_urban rail rail_electric ship" speed="13.89" length="2.41" shape="85.31,571.05 84.41,572.23 83.56,572.59"/>
    </edge>
    <edge id=":5433789653_9" function="internal">