<?xml version="1.0" encoding="UTF-8"?>

<!-- generated on Wed May  8 16:08:47 2019 by SUMO polyconvert Version dev-SVN-rUNKNOWN
<?xml version="1.0" encoding="UTF-8"?>

<configuration xmlns:xsi="http://www.w3.org/2001/XMLSchema-instance" xsi:noNamespaceSchemaLocation="http://sumo.dlr.de/xsd/polyconvertConfiguration.xsd">

    <input>
        <net-file value="01_sf_anza_balboa.net.xml"/>
        <osm-files value="anza_balboa_25th.osm"/>
    </input>

    <output>
        <output-file value="02_sf_anza_balboa.poly.xml"/>
    </output>

    <processing>
        <ignore-errors value="true"/>
        <poi-layer-offset value="5"/>
    </processing>

</configuration>
-->

<additional xmlns:xsi="http://www.w3.org/2001/XMLSchema-instance" xsi:noNamespaceSchemaLocation="http://sumo.dlr.de/xsd/additional_file.xsd">
    <location netOffset="-545103.03,-4180913.75" convBoundary="0.00,-20.82,1370.00,1456.08" origBoundary="-122.487824,37.774256,-122.472262,37.787568" projParameter="+proj=utm +zone=10 +ellps=WGS84 +datum=WGS84 +units=m +no_defs"/>

    <poly id="161504250" type="amenity" color="237,199,199" fill="1" layer="-1.00" shape="171.77,515.23 171.96,515.24 172.95,498.55 172.07,498.50 161.34,497.87 153.94,497.44 142.22,496.74 141.19,496.69 140.20,513.37 147.96,513.84 155.27,514.26 156.43,514.33 171.77,515.23"/>
    <poly id="161504250#1" type="building" color="255,230,230" fill="1" layer="-1.00" shape="171.77,515.23 171.96,515.24 172.95,498.55 172.07,498.50 161.34,497.87 153.94,497.44 142.22,496.74 141.19,496.69 140.20,513.37 147.96,513.84 155.27,514.26 156.43,514.33 171.77,515.23"/>
    <poly id="278106386" type="building" color="255,230,230" fill="1" layer="-1.00" shape="142.20,186.34 150.07,186.67 150.55,175.42 148.58,175.33 148.64,172.42 144.99,172.33 144.92,175.11 141.46,174.97 141.15,182.41 142.36,182.46 142.20,186.34"/>
    <poly id="278333306" type="building" color="255,230,230" fill="1" layer="-1.00" shape="521.59,444.31 514.15,443.89 513.89,446.50 513.71,449.69 513.54,454.63 514.70,454.69 514.44,459.23 519.64,459.52 519.89,455.09 520.98,455.15 521.59,444.31"/>
    <poly id="278333313" type="building" color="255,230,230" fill="1" layer="-1.00" shape="497.64,585.94 472.64,584.29 472.03,585.20 471.88,588.14 472.51,588.98 472.37,591.83 497.22,593.15 497.38,590.38 498.21,589.52 498.40,585.98 497.64,585.94"/>
    <poly id="278333321" type="building" color="255,230,230" fill="1" layer="-1.00" shape="378.73,569.87 386.46,570.37 389.12,570.54 389.90,570.59 389.96,569.61 393.47,569.83 393.80,564.74 390.01,564.50 390.20,563.19 379.08,562.49 378.73,569.87"/>
    <poly id="278333323" type="building" color="255,230,230" fill="1" layer="-1.00" shape="460.97,436.90 436.93,435.41 436.84,436.96 437.74,437.02 437.32,443.81 445.19,444.30 445.25,443.27 451.92,443.67 451.85,444.76 460.44,445.29 460.97,436.90"/>
    <poly id="278333324" type="building" color="255,230,230" fill="1" layer="-1.00" shape="499.98,470.89 494.76,470.46 479.69,469.80 478.34,470.47 478.05,475.89 479.10,477.07 497.36,478.28 499.59,478.17 500.78,477.23 500.92,474.43 499.80,474.37 499.98,470.89"/>
    <poly id="278333325" type="building" color="255,230,230" fill="1" layer="-1.00" shape="523.08,556.32 522.94,558.81 522.34,559.69 522.21,562.07 522.71,563.05 522.67,563.81 525.28,564.07 537.17,564.70 547.06,565.23 547.62,563.42 547.74,560.91 547.34,559.85 547.39,557.64 527.12,556.51 523.08,556.32"/>
    <poly id="278333328" type="building" color="255,230,230" fill="1" layer="-1.00" shape="505.55,486.21 496.98,485.74 478.58,484.68 477.80,485.83 477.72,487.35 478.58,488.49 477.61,489.41 477.51,491.07 478.15,491.47 478.75,492.43 505.14,493.83 505.55,486.21"/>
    <poly id="278333330" type="building" color="255,230,230" fill="1" layer="-1.00" shape="551.48,483.88 550.70,483.83 550.83,481.52 540.56,480.96 540.24,480.95 540.07,484.19 537.02,484.04 536.79,487.26 539.85,487.43 539.79,488.59 549.63,489.12 551.21,489.21 551.48,483.88"/>
    <poly id="278333331" type="building" color="255,230,230" fill="1" layer="-1.00" shape="453.18,556.04 452.35,555.99 452.55,552.01 443.38,551.52 440.76,551.39 436.71,551.18 436.63,552.68 434.98,552.60 434.76,556.76 437.77,556.91 437.69,558.48 441.25,558.78 453.01,559.38 453.18,556.04"/>
    <poly id="278333333" type="building" color="255,230,230" fill="1" layer="-1.00" shape="418.05,587.88 410.59,587.40 410.29,594.40 408.84,617.16 408.64,617.88 410.01,617.97 409.93,619.10 413.06,619.29 413.13,618.16 416.12,618.34 417.63,596.28 418.05,587.88"/>
    <poly id="278333335" type="building" color="255,230,230" fill="1" layer="-1.00" shape="547.84,550.17 527.64,548.79 527.58,550.28 524.21,550.11 523.96,554.65 527.22,554.83 527.12,556.51 547.39,557.64 547.55,555.45 548.22,554.56 548.40,551.24 547.88,550.94 547.84,550.17"/>
    <poly id="278333336" type="building" color="255,230,230" fill="1" layer="-1.00" shape="514.14,442.18 506.06,441.72 505.02,457.22 506.65,457.31 506.44,461.04 511.85,461.34 512.07,457.60 513.25,457.67 513.71,449.69 512.53,449.62 512.70,446.42 513.89,446.50 514.14,442.18"/>
    <poly id="278333337" type="building" color="255,230,230" fill="1" layer="-1.00" shape="457.04,460.54 448.47,460.08 448.29,463.54 447.19,463.48 447.34,460.36 440.77,460.02 440.42,466.37 445.81,466.66 445.84,466.08 448.50,466.22 448.43,467.46 456.66,467.89 457.04,460.54"/>
    <poly id="278333338" type="building" color="255,230,230" fill="1" layer="-1.00" shape="386.23,441.11 395.04,441.66 395.12,440.49 396.72,440.59 396.82,439.10 400.47,439.34 400.37,440.74 401.98,440.85 401.91,442.09 409.71,442.59 410.26,433.93 386.78,432.45 386.23,441.11"/>
    <poly id="278333343" type="building" color="255,230,230" fill="1" layer="-1.00" shape="493.49,561.76 474.33,560.74 474.25,562.09 473.69,562.07 473.03,563.40 472.90,565.72 473.47,566.76 473.99,566.78 473.90,568.50 474.36,568.64 485.25,569.16 493.07,569.53 493.49,561.76"/>
    <poly id="278333348" type="building" color="255,230,230" fill="1" layer="-1.00" shape="551.35,496.67 549.19,496.58 539.00,496.10 527.48,495.57 527.37,497.71 526.32,498.76 526.19,501.14 527.01,502.07 526.98,503.08 533.39,503.45 550.93,504.39 550.97,503.84 551.61,503.00 551.75,500.38 551.20,499.45 551.35,496.67"/>
    <poly id="278333349" type="building" color="255,230,230" fill="1" layer="-1.00" shape="479.64,461.82 479.22,469.63 479.69,469.80 494.76,470.46 494.96,466.85 495.49,465.85 495.64,463.58 495.22,462.08 492.38,461.93 492.26,463.93 487.46,463.67 487.54,462.24 479.64,461.82"/>
    <poly id="278333350" type="building" color="255,230,230" fill="1" layer="-1.00" shape="520.78,594.29 512.58,593.86 510.94,624.15 512.63,624.25 513.16,624.82 513.85,625.26 514.65,625.51 515.70,625.29 516.37,625.02 516.86,624.58 519.03,624.67 520.21,608.36 520.78,594.29"/>
    <poly id="278333352" type="building" color="255,230,230" fill="1" layer="-1.00" shape="498.66,554.47 474.71,553.18 474.51,555.38 473.66,556.34 473.50,559.16 474.33,560.74 493.49,561.76 498.17,561.99 498.19,561.56 499.06,560.59 499.20,558.17 498.42,557.22 498.66,554.47"/>
    <poly id="278333353" type="building" color="255,230,230" fill="1" layer="-1.00" shape="381.01,531.84 381.42,531.86 389.99,532.40 392.65,532.57 398.00,532.91 398.08,531.46 401.85,531.70 402.13,527.29 400.96,527.21 401.07,525.56 392.37,525.00 388.50,524.75 381.49,524.32 381.01,531.84"/>
    <poly id="278333354" type="building" color="255,230,230" fill="1" layer="-1.00" shape="485.25,569.16 474.36,568.64 474.04,569.26 473.02,570.67 472.74,575.91 473.06,575.92 486.13,576.62 486.19,575.49 491.49,575.78 491.70,571.94 489.42,571.82 489.49,570.61 485.18,570.37 485.25,569.16"/>
    <poly id="278333356" type="building" color="255,230,230" fill="1" layer="-1.00" shape="385.77,448.34 389.58,448.46 398.90,449.11 398.98,447.88 404.58,448.25 404.76,445.43 402.89,445.31 403.02,443.27 399.37,443.03 399.43,441.94 395.04,441.66 386.23,441.11 385.77,448.34"/>
    <poly id="278333361" type="building" color="255,230,230" fill="1" layer="-1.00" shape="455.74,528.85 453.65,528.69 444.48,528.17 444.37,529.93 438.82,529.62 438.92,527.95 427.99,527.35 427.56,535.11 438.87,535.75 439.74,535.80 439.93,532.61 441.75,532.71 441.57,535.86 445.01,536.08 446.08,536.14 454.77,536.60 455.31,536.62 455.74,528.85"/>
    <poly id="278333363" type="building" color="255,230,230" fill="1" layer="-1.00" shape="550.93,474.50 550.97,473.80 541.08,473.27 540.93,475.87 535.66,475.59 535.45,479.34 540.64,479.60 540.56,480.96 550.83,481.52 551.62,481.57 551.79,481.57 551.97,478.17 551.76,475.74 551.65,474.56 550.93,474.50"/>
    <poly id="278333365" type="building" color="255,230,230" fill="1" layer="-1.00" shape="549.37,493.88 549.63,489.12 539.79,488.59 539.45,488.58 539.30,491.51 536.49,491.36 536.37,494.99 539.02,495.09 539.00,496.10 549.19,496.58 549.20,496.10 551.33,496.21 551.45,493.99 549.37,493.88"/>
    <poly id="278333366" type="building" color="255,230,230" fill="1" layer="-1.00" shape="382.01,516.63 381.49,524.32 388.50,524.75 388.58,523.39 392.46,523.64 392.37,525.00 401.07,525.56 401.92,525.60 402.01,524.24 405.59,524.46 405.88,519.84 402.13,519.61 402.23,518.07 382.01,516.63"/>
    <poly id="278333368" type="building" color="255,230,230" fill="1" layer="-1.00" shape="550.01,511.98 530.42,510.93 529.68,511.96 529.69,513.33 530.09,514.46 529.40,515.61 529.35,517.13 529.95,517.90 529.90,518.39 549.22,519.42 550.29,517.58 550.42,515.27 550.02,514.38 550.01,511.98"/>
    <poly id="278333369" type="building" color="255,230,230" fill="1" layer="-1.00" shape="382.00,509.08 382.49,509.10 397.82,510.06 398.02,506.91 399.71,507.02 399.92,503.72 397.35,503.56 397.41,502.58 395.48,502.46 395.51,503.44 392.31,503.24 392.37,502.24 382.49,501.67 382.00,509.08"/>
    <poly id="278333380" type="building" color="255,230,230" fill="1" layer="-1.00" shape="512.69,515.83 512.99,510.36 510.23,510.21 510.28,509.25 502.58,508.85 502.49,510.63 500.41,510.52 500.07,516.61 503.02,516.60 509.75,517.13 509.85,515.30 510.98,515.36 510.96,515.74 512.69,515.83"/>
    <poly id="278333381" type="building" color="255,230,230" fill="1" layer="-1.00" shape="472.37,591.83 472.28,593.33 471.58,594.23 471.41,597.27 472.00,598.39 471.98,598.95 488.87,600.13 496.62,600.27 496.67,599.39 497.44,598.74 497.55,596.64 496.89,595.19 497.22,593.15 472.37,591.83"/>
    <poly id="278333382" type="building" color="255,230,230" fill="1" layer="-1.00" shape="452.71,574.48 451.89,574.44 441.86,573.91 440.78,573.85 436.24,573.62 425.89,573.07 425.47,580.76 437.38,581.38 437.55,578.05 439.24,578.14 439.07,581.47 440.32,581.66 451.28,582.23 452.30,582.16 452.71,574.48"/>
    <poly id="278333383" type="building" color="255,230,230" fill="1" layer="-1.00" shape="506.01,441.23 499.38,440.83 499.09,445.35 497.71,445.27 497.36,450.90 497.03,456.20 498.20,456.27 497.80,462.62 501.91,462.87 502.04,460.77 504.79,460.94 505.02,457.22 506.06,441.72 506.01,441.23"/>
    <poly id="278333394" type="building" color="255,230,230" fill="1" layer="-1.00" shape="425.85,565.59 436.68,566.17 438.23,566.24 438.39,563.02 440.43,563.13 440.26,566.35 452.75,567.01 453.44,567.05 453.84,559.46 453.01,559.38 441.25,558.78 441.17,560.35 436.07,560.10 436.17,558.18 426.27,557.68 425.85,565.59"/>
    <poly id="278333397" type="building" color="255,230,230" fill="1" layer="-1.00" shape="459.98,453.56 455.04,453.30 452.99,453.18 449.72,453.01 449.80,453.49 444.42,453.20 444.24,456.61 449.56,456.89 449.41,459.71 448.47,459.67 448.47,460.08 457.04,460.54 459.54,460.57 459.56,460.23 459.98,453.56"/>
    <poly id="278333398" type="building" color="255,230,230" fill="1" layer="-1.00" shape="402.83,472.35 398.58,472.08 396.10,471.91 386.29,471.30 385.82,478.69 391.68,479.11 393.85,479.24 394.55,479.23 394.63,478.01 398.26,478.24 398.17,479.46 399.11,479.57 403.93,479.91 404.84,475.31 402.70,474.61 402.83,472.35"/>
    <poly id="278333404" type="building" color="255,230,230" fill="1" layer="-1.00" shape="537.04,442.69 533.46,442.45 533.48,442.06 530.10,441.86 530.06,442.58 529.40,442.54 529.30,443.80 528.90,451.46 530.40,451.55 529.97,459.11 535.14,459.41 535.39,454.98 536.27,455.02 536.60,449.01 537.04,442.69"/>
    <poly id="278333407" type="building" color="255,230,230" fill="1" layer="-1.00" shape="451.28,582.23 440.32,581.66 440.28,582.38 436.90,582.21 436.65,586.87 440.06,587.04 439.95,589.17 440.40,589.55 444.01,589.75 444.03,589.38 445.82,589.48 445.80,589.84 449.98,590.06 450.00,589.54 450.89,589.59 451.28,582.23"/>
    <poly id="278333408" type="building" color="255,230,230" fill="1" layer="-1.00" shape="400.99,540.80 400.66,540.56 397.89,540.38 381.11,539.55 379.92,540.42 379.80,542.25 380.96,543.18 379.67,544.43 379.55,546.23 380.50,547.06 391.02,547.82 393.87,547.99 401.43,548.37 401.63,545.35 400.76,544.44 400.99,540.80"/>
    <poly id="278333422" type="building" color="255,230,230" fill="1" layer="-1.00" shape="401.43,548.37 393.87,547.99 393.79,549.20 390.94,549.01 391.02,547.82 380.50,547.06 379.98,554.70 390.78,555.38 390.83,554.64 396.68,555.00 396.63,555.76 400.82,556.01 401.08,551.88 402.12,551.10 402.22,549.42 401.43,548.37"/>
    <poly id="278333423" type="building" color="255,230,230" fill="1" layer="-1.00" shape="436.34,436.26 428.02,435.79 427.79,439.71 427.10,452.30 427.94,452.34 427.74,456.08 435.16,456.49 435.45,451.30 434.48,451.25 434.56,449.78 435.56,449.84 435.80,445.29 435.02,445.25 435.16,442.77 435.98,442.82 436.34,436.26"/>
    <poly id="278333424" type="building" color="255,230,230" fill="1" layer="-1.00" shape="533.39,503.45 532.61,504.29 532.48,506.55 533.15,507.30 533.10,508.23 530.34,508.07 530.19,510.90 530.42,510.93 550.01,511.98 551.53,512.03 551.71,508.69 550.96,508.64 551.00,507.95 551.74,508.00 551.91,504.96 550.93,504.91 550.93,504.39 533.39,503.45"/>
    <poly id="278333427" type="building" color="255,230,230" fill="1" layer="-1.00" shape="450.86,590.10 449.98,590.06 445.80,589.84 444.01,589.75 440.40,589.55 440.26,589.56 440.18,591.17 437.52,591.03 437.30,595.53 439.89,595.66 439.83,596.77 443.49,596.96 445.42,597.06 449.39,597.27 450.73,597.33 451.11,590.11 450.86,590.10"/>
    <poly id="278333428" type="building" color="255,230,230" fill="1" layer="-1.00" shape="450.19,604.78 450.52,598.70 449.32,598.63 449.39,597.27 445.42,597.06 445.39,597.68 443.45,597.58 443.49,596.96 439.83,596.77 439.70,596.76 439.59,598.89 437.09,598.77 436.86,603.08 439.35,603.22 439.29,604.20 441.94,604.35 450.19,604.78"/>
    <poly id="278333430" type="building" color="255,230,230" fill="1" layer="-1.00" shape="436.68,566.17 436.59,567.92 433.30,567.74 433.10,571.70 436.33,571.88 436.24,573.62 440.78,573.85 440.83,572.91 441.91,572.97 441.86,573.91 451.89,574.44 452.01,572.15 452.51,571.60 452.75,567.01 440.26,566.35 438.23,566.24 436.68,566.17"/>
    <poly id="278333432" type="building" color="255,230,230" fill="1" layer="-1.00" shape="383.62,493.89 390.80,494.33 390.83,493.73 393.04,493.87 393.00,494.55 398.31,494.87 398.43,493.09 401.05,493.25 401.31,489.00 398.65,488.84 398.67,487.36 391.78,486.93 391.72,487.83 388.81,487.65 389.00,486.75 384.08,486.43 383.62,493.89"/>
    <poly id="278333433" type="building" color="255,230,230" fill="1" layer="-1.00" shape="478.18,477.97 478.08,480.02 478.75,480.89 478.00,481.70 477.89,483.78 478.58,484.68 496.98,485.74 497.00,485.37 497.74,484.92 497.83,483.19 497.15,482.49 497.20,481.62 497.96,480.85 498.02,479.60 497.36,478.28 479.10,477.07 478.18,477.97"/>
    <poly id="278333440" type="building" color="255,230,230" fill="1" layer="-1.00" shape="490.26,439.23 489.60,451.76 490.68,451.82 490.34,458.06 494.79,458.32 494.97,454.87 495.85,454.92 496.10,450.83 497.36,450.90 497.71,445.27 497.84,439.98 497.18,439.95 497.22,439.29 495.76,439.29 495.01,438.48 493.23,438.47 492.41,439.26 490.26,439.23"/>
    <poly id="278333442" type="building" color="255,230,230" fill="1" layer="-1.00" shape="402.86,533.29 398.00,532.91 392.65,532.57 392.59,533.73 389.92,533.56 389.99,532.40 381.42,531.86 381.37,532.61 379.93,532.52 379.53,538.79 380.89,538.87 381.11,539.55 397.89,540.38 397.95,539.56 400.71,539.74 400.66,540.56 402.39,540.67 402.86,533.29"/>
    <poly id="278333444" type="building" color="255,230,230" fill="1" layer="-1.00" shape="396.57,586.61 397.07,578.88 394.95,578.77 389.90,578.40 387.48,578.32 379.13,577.72 379.07,578.83 377.62,578.74 377.27,584.13 378.67,584.22 378.59,585.44 386.33,585.94 386.42,584.51 389.91,584.72 389.95,584.07 391.51,584.17 391.37,586.29 396.57,586.61"/>
    <poly id="278333449" type="building" color="255,230,230" fill="1" layer="-1.00" shape="457.30,491.02 448.14,490.54 448.08,491.83 441.78,491.51 441.85,490.20 437.06,489.95 436.99,491.15 433.79,490.98 433.55,495.57 436.72,495.73 436.64,497.27 441.71,497.54 444.35,497.67 444.75,497.70 444.79,496.92 447.19,497.04 447.15,497.80 456.93,498.31 457.30,491.02"/>
    <poly id="278333451" type="building" color="255,230,230" fill="1" layer="-1.00" shape="385.82,471.26 386.29,471.30 396.10,471.91 396.16,470.92 398.65,471.08 398.58,472.08 402.83,472.35 405.16,472.49 405.32,469.98 409.31,470.24 409.53,466.64 405.63,466.38 405.76,464.52 399.50,464.12 399.39,465.82 395.74,465.59 395.83,464.20 388.71,463.76 386.30,463.60 385.82,471.26"/>
    <poly id="278333453" type="building" color="255,230,230" fill="1" layer="-1.00" shape="457.26,498.33 456.93,498.31 447.15,497.80 444.75,497.70 444.35,497.67 444.17,500.79 441.54,500.65 441.71,497.54 436.64,497.27 429.66,496.93 429.25,504.45 433.16,504.66 439.13,504.98 439.22,503.44 444.34,503.72 444.25,505.34 445.48,505.40 456.22,505.99 456.84,506.02 457.26,498.33"/>
    <poly id="278333456" type="building" color="255,230,230" fill="1" layer="-1.00" shape="384.08,486.43 389.00,486.75 389.07,485.48 391.71,485.65 391.78,486.93 398.67,487.36 398.78,485.73 401.45,485.90 401.74,481.35 399.01,481.18 399.11,479.57 398.17,479.46 394.55,479.23 393.85,479.24 393.81,479.85 391.64,479.72 391.68,479.11 385.82,478.69 384.59,478.66 384.08,486.43"/>
    <poly id="278333459" type="building" color="255,230,230" fill="1" layer="-1.00" shape="457.07,467.92 456.66,467.89 448.43,467.46 447.97,467.44 447.92,468.60 441.38,468.26 441.33,469.19 439.87,469.11 439.92,468.19 436.82,468.03 436.74,469.54 437.57,469.57 437.47,471.48 441.32,471.68 441.27,472.55 444.06,472.70 443.94,474.94 455.34,475.53 456.66,475.61 457.07,467.92"/>
    <poly id="278333460" type="building" color="255,230,230" fill="1" layer="-1.00" shape="382.49,509.10 382.41,510.31 382.08,510.71 381.73,511.64 381.46,512.90 381.56,513.58 381.63,514.05 381.80,514.70 382.09,515.39 382.01,516.63 402.23,518.07 402.55,517.93 402.64,516.59 406.50,516.84 406.79,512.27 403.03,512.02 403.11,510.67 397.87,510.34 397.82,510.06 382.49,509.10"/>
    <poly id="278333462" type="building" color="255,230,230" fill="1" layer="-1.00" shape="412.21,434.81 411.85,440.40 412.43,440.43 412.26,443.16 411.68,443.13 410.97,454.13 411.46,454.15 411.27,457.01 417.25,457.40 417.43,454.47 417.68,454.49 418.13,447.34 418.98,447.39 419.16,444.54 419.38,441.23 419.54,438.53 419.62,437.44 417.34,437.30 417.48,435.14 412.21,434.81"/>
    <poly id="278333467" type="building" color="255,230,230" fill="1" layer="-1.00" shape="555.20,443.23 537.05,441.77 537.04,442.69 536.60,449.01 538.91,449.14 538.56,455.16 538.45,455.14 537.98,464.25 535.78,464.14 535.42,471.15 553.64,472.13 554.34,459.16 552.56,459.06 552.52,459.80 547.57,459.54 547.79,455.26 552.74,455.52 552.70,456.21 554.50,456.31 554.54,455.62 555.20,443.23"/>
    <poly id="278333470" type="building" color="255,230,230" fill="1" layer="-1.00" shape="382.49,501.67 392.37,502.24 392.83,502.28 392.92,500.86 395.57,501.02 395.48,502.46 397.41,502.58 397.79,502.61 397.89,500.94 400.65,501.11 400.83,497.98 398.99,497.87 399.17,494.92 398.31,494.87 393.00,494.55 392.97,495.17 390.77,495.05 390.80,494.33 383.62,493.89 382.96,493.86 382.49,501.67"/>
    <poly id="278333475" type="building" color="255,230,230" fill="1" layer="-1.00" shape="420.03,434.99 419.94,438.57 419.54,438.53 419.38,441.23 420.76,441.31 420.55,444.64 419.16,444.54 418.98,447.39 418.56,455.36 419.54,455.42 419.37,458.20 425.38,458.58 425.57,455.56 426.99,455.65 427.10,452.30 427.79,439.71 427.36,439.28 426.78,439.27 426.80,438.49 424.98,438.46 425.14,435.13 420.03,434.99"/>
    <poly id="278333495" type="building" color="255,230,230" fill="1" layer="-1.00" shape="388.71,463.76 395.83,464.20 398.42,464.38 398.52,463.08 402.06,463.33 402.34,459.36 398.79,459.11 399.08,454.98 403.03,455.25 403.35,450.71 399.40,450.44 399.49,449.15 398.90,449.11 389.58,448.46 389.51,449.38 386.10,449.14 385.71,454.76 389.15,455.01 388.99,457.26 385.55,457.02 385.14,462.83 388.76,463.08 388.71,463.76"/>
    <poly id="278333502" type="building" color="255,230,230" fill="1" layer="-1.00" shape="377.93,577.68 379.13,577.72 387.48,578.32 387.82,577.68 389.95,577.82 389.90,578.40 394.95,578.77 395.08,577.07 398.03,577.28 398.36,572.74 395.47,572.54 395.59,570.98 389.90,570.59 389.12,570.54 389.01,572.12 386.34,571.92 386.46,570.37 378.73,569.87 378.38,569.83 378.30,570.89 377.75,571.76 377.57,574.40 378.11,575.08 377.93,577.68"/>
    <poly id="278333507" type="building" color="255,230,230" fill="1" layer="-1.00" shape="456.18,506.63 456.22,505.99 445.48,505.40 445.33,508.44 443.40,508.34 443.56,505.20 439.13,504.98 433.16,504.66 433.14,505.10 431.01,504.99 430.65,511.82 432.61,511.92 432.58,512.53 436.60,512.74 441.29,512.99 441.40,510.85 447.35,511.16 447.25,513.24 448.40,513.36 455.85,513.70 456.84,512.69 456.94,510.77 456.14,509.88 457.03,509.16 457.12,507.40 456.18,506.63"/>
    <poly id="278333509" type="building" color="255,230,230" fill="1" layer="-1.00" shape="455.85,513.70 448.40,513.36 448.34,514.43 445.32,514.28 445.38,513.20 441.29,512.99 436.60,512.74 436.55,513.68 433.21,513.51 432.95,518.44 436.47,518.62 436.39,520.14 440.57,520.51 444.91,520.75 444.98,519.57 448.53,519.75 448.46,520.95 454.07,521.27 455.73,521.29 455.77,520.72 456.41,520.26 456.55,518.68 456.02,517.95 456.13,516.77 456.70,516.46 456.84,514.87 456.35,514.23 455.85,513.70"/>
    <poly id="278333516" type="building" color="255,230,230" fill="1" layer="-1.00" shape="545.70,588.14 545.77,586.90 546.11,586.69 546.22,584.62 545.91,584.37 546.11,580.47 546.55,580.19 546.67,577.89 546.26,577.87 546.30,577.00 536.90,576.49 536.85,577.57 524.02,576.89 524.09,575.55 515.32,575.08 515.30,575.59 514.44,576.44 514.34,578.33 515.04,579.25 514.88,582.21 514.08,583.09 513.99,584.78 514.64,585.64 514.61,586.27 523.35,586.74 523.43,585.34 536.10,586.02 536.02,587.62 544.78,588.00 545.70,588.14"/>
    <poly id="278333520" type="building" color="255,230,230" fill="1" layer="-1.00" shape="515.91,563.56 515.87,564.35 515.33,564.97 515.22,566.83 515.70,567.48 515.51,570.92 514.93,571.36 514.81,573.48 515.34,574.11 515.32,575.08 524.09,575.55 524.47,575.56 524.55,574.01 536.62,574.65 536.52,576.44 536.90,576.49 546.30,577.00 546.32,575.86 546.85,575.44 546.97,573.23 546.56,572.73 546.76,569.24 547.21,568.86 547.34,566.28 547.01,566.27 547.06,565.23 537.17,564.70 537.08,566.35 525.19,565.71 525.28,564.07 522.67,563.81 515.91,563.56"/>
    <poly id="278333523" type="building" color="255,230,230" fill="1" layer="-1.00" shape="387.63,588.81 377.83,588.19 376.90,589.33 376.81,590.94 377.59,591.91 377.55,592.57 376.33,593.44 376.22,595.39 377.33,596.08 376.93,602.45 375.71,603.34 375.59,605.22 376.72,605.89 376.66,607.02 375.42,607.84 375.31,609.52 376.45,610.36 376.37,611.72 375.12,612.62 374.99,614.49 376.27,615.59 376.81,615.45 377.72,616.33 378.97,616.42 379.81,615.69 381.86,615.81 382.79,616.66 384.07,616.74 384.91,615.99 385.89,616.29 387.45,591.71 387.63,588.81"/>
    <poly id="278333530" type="building" color="255,230,230" fill="1" layer="-1.00" shape="506.84,471.39 510.41,471.66 510.69,468.05 507.13,467.76 506.84,471.39"/>
    <poly id="278333531" type="building" color="255,230,230" fill="1" layer="-1.00" shape="473.23,553.14 474.71,553.18 498.66,554.47 500.50,554.60 500.91,546.95 473.72,545.49 473.23,553.14"/>
    <poly id="278333534" type="building" color="255,230,230" fill="1" layer="-1.00" shape="455.34,475.53 443.94,474.94 443.62,482.11 454.95,482.71 455.34,475.53"/>
    <poly id="278333536" type="building" color="255,230,230" fill="1" layer="-1.00" shape="513.44,520.99 517.42,521.19 517.59,517.89 513.59,517.71 513.44,520.99"/>
    <poly id="278333537" type="building" color="255,230,230" fill="1" layer="-1.00" shape="508.06,524.74 502.65,524.45 475.32,522.99 474.93,530.27 507.67,532.03 508.06,524.74"/>
    <poly id="278333543" type="building" color="255,230,230" fill="1" layer="-1.00" shape="439.66,448.69 446.09,449.03 446.33,444.54 439.90,444.20 439.66,448.69"/>
    <poly id="278333545" type="building" color="255,230,230" fill="1" layer="-1.00" shape="508.95,586.08 511.67,586.26 513.22,563.87 510.50,563.68 508.95,586.08"/>
    <poly id="278333549" type="building" color="255,230,230" fill="1" layer="-1.00" shape="523.43,539.61 527.11,539.82 527.38,535.06 523.70,534.85 523.43,539.61"/>
    <poly id="278333558" type="building" color="255,230,230" fill="1" layer="-1.00" shape="473.06,575.92 472.64,584.29 497.64,585.94 498.11,577.27 486.13,576.62 473.06,575.92"/>
    <poly id="278333560" type="building" color="255,230,230" fill="1" layer="-1.00" shape="410.29,594.40 402.49,593.91 402.15,599.33 401.05,616.67 408.84,617.16 410.29,594.40"/>
    <poly id="278333565" type="building" color="255,230,230" fill="1" layer="-1.00" shape="501.56,539.26 474.14,537.79 473.72,545.49 500.91,546.95 501.15,546.96 501.56,539.26"/>
    <poly id="278333568" type="building" color="255,230,230" fill="1" layer="-1.00" shape="504.76,593.33 504.23,600.95 503.85,608.07 502.99,623.60 503.05,624.83 510.84,625.25 510.94,624.15 512.58,593.86 504.76,593.33"/>
    <poly id="278333569" type="building" color="255,230,230" fill="1" layer="-1.00" shape="489.07,460.00 489.60,451.76 490.26,439.23 481.10,438.72 479.83,459.67 489.07,460.00"/>
    <poly id="278333581" type="building" color="255,230,230" fill="1" layer="-1.00" shape="502.65,524.45 503.02,516.60 500.07,516.61 491.39,515.90 475.61,515.05 475.32,522.99 502.65,524.45"/>
    <poly id="278333582" type="building" color="255,230,230" fill="1" layer="-1.00" shape="491.39,515.90 491.80,508.21 476.17,507.38 475.84,507.36 475.42,515.04 475.61,515.05 491.39,515.90"/>
    <poly id="278333585" type="building" color="255,230,230" fill="1" layer="-1.00" shape="478.37,537.47 489.98,538.09 490.10,535.76 490.33,535.77 490.56,531.48 478.73,530.85 478.37,537.47"/>
    <poly id="278333591" type="building" color="255,230,230" fill="1" layer="-1.00" shape="507.49,493.97 505.14,493.83 478.75,492.43 478.34,499.94 504.12,501.31 507.08,501.56 507.49,493.97"/>
    <poly id="278333597" type="building" color="255,230,230" fill="1" layer="-1.00" shape="395.02,592.19 387.45,591.71 385.89,616.29 393.46,616.72 393.48,616.34 394.59,598.84 395.02,592.19"/>
    <poly id="278333598" type="building" color="255,230,230" fill="1" layer="-1.00" shape="521.63,541.09 521.23,548.51 527.64,548.79 547.84,550.17 548.44,550.21 549.00,542.56 547.85,542.49 527.02,541.38 521.63,541.09"/>
    <poly id="278333602" type="building" color="255,230,230" fill="1" layer="-1.00" shape="549.38,519.47 549.22,519.42 529.90,518.39 529.67,518.42 529.27,525.97 548.98,527.02 549.40,525.73 549.90,522.91 549.38,519.47"/>
    <poly id="278333603" type="building" color="255,230,230" fill="1" layer="-1.00" shape="476.57,499.84 476.17,507.38 491.80,508.21 503.72,508.85 504.12,501.31 478.34,499.94 476.57,499.84"/>
    <poly id="278333606" type="building" color="255,230,230" fill="1" layer="-1.00" shape="544.35,595.71 544.78,588.00 536.02,587.62 528.50,587.12 528.30,590.68 529.95,590.78 529.72,594.93 544.35,595.71"/>
    <poly id="278333608" type="building" color="255,230,230" fill="1" layer="-1.00" shape="426.69,519.61 421.04,519.48 421.02,520.36 418.26,520.30 418.13,525.90 419.04,527.05 426.52,527.22 426.69,519.61"/>
    <poly id="278333609" type="building" color="255,230,230" fill="1" layer="-1.00" shape="454.07,521.27 448.46,520.95 444.91,520.75 440.57,520.51 440.14,527.93 444.48,528.17 453.65,528.69 454.07,521.27"/>
    <poly id="278333611" type="building" color="255,230,230" fill="1" layer="-1.00" shape="425.28,595.48 421.18,595.22 421.11,596.50 417.63,596.28 416.12,618.34 423.79,618.84 425.05,603.46 425.28,595.48"/>
    <poly id="278333616" type="building" color="255,230,230" fill="1" layer="-1.00" shape="549.22,527.36 537.57,526.74 537.45,529.05 534.53,528.89 534.34,532.38 537.24,532.53 537.17,534.12 548.31,534.78 548.79,534.83 549.22,527.36"/>
    <poly id="278333617" type="building" color="255,230,230" fill="1" layer="-1.00" shape="458.33,483.36 428.48,481.80 428.07,489.48 437.06,489.95 441.85,490.20 448.14,490.54 457.30,491.02 457.92,491.05 458.33,483.36"/>
    <poly id="278333631" type="building" color="255,230,230" fill="1" layer="-1.00" shape="460.19,449.82 460.44,445.29 451.85,444.76 450.07,444.71 450.02,445.68 447.00,445.52 446.82,449.12 449.92,449.28 460.19,449.82"/>
    <poly id="278333635" type="building" color="255,230,230" fill="1" layer="-1.00" shape="460.19,449.82 449.92,449.28 449.72,453.01 452.99,453.18 453.01,452.70 455.07,452.81 455.04,453.30 459.98,453.56 460.19,449.82"/>
    <poly id="278333642" type="building" color="255,230,230" fill="1" layer="-1.00" shape="527.44,533.54 527.38,535.06 527.11,539.82 527.02,541.38 547.85,542.49 547.90,542.06 548.94,541.37 549.25,536.24 548.33,535.44 548.31,534.78 537.17,534.12 527.44,533.54"/>
    <poly id="278333647" type="building" color="255,230,230" fill="1" layer="-1.00" shape="529.30,443.80 521.65,443.37 521.59,444.31 520.98,455.15 520.50,463.40 522.91,463.53 523.16,459.26 528.39,459.57 528.90,451.46 529.30,443.80"/>
    <poly id="278333650" type="building" color="255,230,230" fill="1" layer="-1.00" shape="379.08,562.49 390.20,563.19 390.29,561.73 398.42,562.25 398.68,558.14 390.54,557.63 390.78,555.38 379.98,554.70 379.58,554.54 379.08,562.49"/>