<?xml version="1.0" encoding="UTF-8"?>

<!-- generated on Thu Apr  4 09:40:49 2019 by SUMO netconvert Version dev-SVN-rUNKNOWN
<?xml version="1.0" encoding="UTF-8"?>

<configuration xmlns:xsi="http://www.w3.org/2001/XMLSchema-instance" xsi:noNamespaceSchemaLocation="http://sumo.dlr.de/xsd/netconvertConfiguration.xsd">

    <input>
        <osm-files value="davis_map_v1.osm"/>
    </input>

    <output>
        <output-file value="davis.net.xml"/>
    </output>

    <projection>
        <proj.utm value="true"/>
    </projection>

    <report>
        <xml-validation value="never"/>
    </report>

</configuration>
-->

<net version="0.27" xmlns:xsi="http://www.w3.org/2001/XMLSchema-instance" xsi:noNamespaceSchemaLocation="http://sumo.dlr.de/xsd/net_file.xsd">

    <location netOffset="-609129.54,-4266609.47" convBoundary="0.00,0.00,1217.41,3355.24" origBoundary="-121.747535,38.541158,-121.733742,38.571433" projParameter="+proj=utm +zone=10 +ellps=WGS84 +datum=WGS84 +units=m +no_defs"/>

    <type id="highway.bridleway" priority="1" numLanes="1" speed="2.78" allow="pedestrian" oneway="1" width="2.00"/>
    <type id="highway.bus_guideway" priority="1" numLanes="1" speed="8.33" allow="bus" oneway="1"/>
    <type id="highway.cycleway" priority="1" numLanes="1" speed="5.56" allow="bicycle" oneway="0" width="1.00"/>
    <type id="highway.footway" priority="1" numLanes="1" speed="2.78" allow="pedestrian" oneway="1" width="2.00"/>
    <type id="highway.ford" priority="1" numLanes="1" speed="2.78" allow="army" oneway="0"/>
    <type id="highway.living_street" priority="3" numLanes="1" speed="2.78" disallow="tram rail_urban rail rail_electric ship" oneway="0"/>
    <type id="highway.motorway" priority="13" numLanes="2" speed="44.44" allow="private emergency authority army vip passenger hov taxi bus coach delivery truck trailer motorcycle evehicle custom1 custom2" oneway="1"/>
    <type id="highway.motorway_link" priority="12" numLanes="1" speed="22.22" allow="private emergency authority army vip passenger hov taxi bus coach delivery truck trailer motorcycle evehicle custom1 custom2" oneway="1"/>
    <type id="highway.path" priority="1" numLanes="1" speed="2.78" allow="bicycle pedestrian" oneway="1" width="2.00"/>
    <type id="highway.pedestrian" priority="1" numLanes="1" speed="2.78" allow="pedestrian" oneway="1" width="2.00"/>
    <type id="highway.primary" priority="9" numLanes="2" speed="27.78" disallow="tram rail_urban rail rail_electric ship" oneway="0"/>
    <type id="highway.primary_link" priority="8" numLanes="1" speed="22.22" disallow="tram rail_urban rail rail_electric ship" oneway="0"/>
    <type id="highway.raceway" priority="14" numLanes="2" speed="83.33" allow="vip" oneway="0"/>
    <type id="highway.residential" priority="4" numLanes="1" speed="13.89" disallow="tram rail_urban rail rail_electric ship" oneway="0"/>
    <type id="highway.secondary" priority="7" numLanes="2" speed="27.78" disallow="tram rail_urban rail rail_electric ship" oneway="0"/>
    <type id="highway.secondary_link" priority="6" numLanes="1" speed="22.22" disallow="tram rail_urban rail rail_electric ship" oneway="0"/>
    <type id="highway.service" priority="2" numLanes="1" speed="5.56" allow="delivery bicycle pedestrian" oneway="0"/>
    <type id="highway.services" priority="1" numLanes="1" speed="8.33" disallow="tram rail_urban rail rail_electric ship" oneway="0"/>
    <type id="highway.stairs" priority="1" numLanes="1" speed="1.39" allow="pedestrian" oneway="1" width="2.00"/>
    <type id="highway.step" priority="1" numLanes="1" speed="1.39" allow="pedestrian" oneway="1" width="2.00"/>
    <type id="highway.steps" priority="1" numLanes="1" speed="1.39" allow="pedestrian" oneway="1" width="2.00"/>
    <type id="highway.tertiary" priority="6" numLanes="1" speed="22.22" disallow="tram rail_urban rail rail_electric ship" oneway="0"/>
    <type id="highway.tertiary_link" priority="5" numLanes="1" speed="22.22" disallow="tram rail_urban rail rail_electric ship" oneway="0"/>
    <type id="highway.track" priority="1" numLanes="1" speed="5.56" disallow="tram rail_urban rail rail_electric ship" oneway="0"/>
    <type id="highway.trunk" priority="11" numLanes="2" speed="27.78" disallow="tram rail_urban rail rail_electric bicycle pedestrian ship" oneway="0"/>
    <type id="highway.trunk_link" priority="10" numLanes="1" speed="22.22" disallow="tram rail_urban rail rail_electric bicycle pedestrian ship" oneway="0"/>
    <type id="highway.unclassified" priority="5" numLanes="1" speed="13.89" disallow="tram rail_urban rail rail_electric ship" oneway="0"/>
    <type id="highway.unsurfaced" priority="1" numLanes="1" speed="8.33" disallow="tram rail_urban rail rail_electric ship" oneway="0"/>
    <type id="railway.light_rail" priority="15" numLanes="1" speed="27.78" allow="rail_urban" oneway="1"/>
    <type id="railway.preserved" priority="15" numLanes="1" speed="27.78" allow="rail" oneway="1"/>
    <type id="railway.rail" priority="15" numLanes="1" speed="83.33" allow="rail rail_electric" oneway="1"/>
    <type id="railway.subway" priority="15" numLanes="1" speed="27.78" allow="rail_urban" oneway="1"/>
    <type id="railway.tram" priority="15" numLanes="1" speed="13.89" allow="tram" oneway="1"/>

    <edge id=":1060614616_0" function="internal">
        <lane id=":1060614616_0_0" index="0" allow="delivery bicycle pedestrian" speed="9.73" length="5.06" shape="727.79,465.83 727.67,467.17 728.03,468.26 728.85,469.08 730.14,469.63"/>
    </edge>
    <edge id=":1060614616_1" function="internal">
        <lane id=":1060614616_1_0" index="0" disallow="tram rail_urban rail rail_electric ship" speed="13.89" length="6.21" shape="727.79,465.83 726.37,471.87"/>
    </edge>
    <edge id=":1060614616_2" function="internal">
        <lane id=":1060614616_2_0" index="0" disallow="tram rail_urban rail rail_electric ship" speed="13.89" length="2.41" shape="727.79,465.83 726.70,466.84 725.80,467.06"/>
    </edge>
    <edge id=":1060614616_6" function="internal">
        <lane id=":1060614616_6_0" index="0" speed="13.89" length="2.41" shape="725.80,467.06 725.09,466.47 724.57,465.07"/>
    </edge>
    <edge id=":1060614616_3" function="internal">
        <lane id=":1060614616_3_0" index="0" disallow="tram rail_urban rail rail_electric ship" speed="13.89" length="6.21" shape="723.16,471.12 724.57,465.07"/>
    </edge>
    <edge id=":1060614616_4" function="internal">
        <lane id=":1060614616_4_0" index="0" allow="delivery bicycle pedestrian" speed="9.73" length="3.05" shape="723.16,471.12 723.88,469.82 725.28,469.14"/>
    </edge>
    <edge id=":1060614616_5" function="internal">
        <lane id=":1060614616_5_0" index="0" disallow="tram rail_urban rail rail_electric ship" speed="13.89" length="2.41" shape="723.16,471.12 724.24,470.10 725.14,469.89"/>
    </edge>
    <edge id=":1060614616_7" function="internal">
        <lane id=":1060614616_7_0" index="0" speed="9.73" length="4.92" shape="725.28,469.14 727.37,469.08 730.14,469.63"/>
    </edge>
    <edge id=":1060614616_8" function="internal">
        <lane id=":1060614616_8_0" index="0" speed="13.89" length="2.41" shape="725.14,469.89 725.85,470.48 726.37,471.87"/>
    </edge>
    <edge id=":1060614618_0" function="internal">
        <lane id=":1060614618_0_0" index="0" allow="delivery bicycle pedestrian" speed="5.56" length="6.19" shape="743.51,473.33 749.48,474.96"/>
    </edge>
    <edge id=":1060614618_1" function="internal">
        <lane id=":1060614618_1_0" index="0" allow="delivery bicycle pedestrian" speed="5.56" length="5.05" shape="745.73,477.22 746.22,475.92 747.01,475.11 748.10,474.79 749.48,474.96"/>
    </edge>
    <edge id=":1060614622_0" function="internal">
        <lane id=":1060614622_0_0" index="0" allow="delivery bicycle pedestrian" speed="5.56" length="6.21" shape="757.58,477.14 763.58,478.77"/>
    </edge>
    <edge id=":1060614622_1" function="internal">
        <lane id=":1060614622_1_0" index="0" allow="delivery bicycle pedestrian" speed="5.56" length="5.02" shape="757.58,477.14 758.84,477.68 759.62,478.49 759.94,479.59 759.78,480.96"/>
    </edge>
    <edge id=":1060614625_0" function="internal">
        <lane id=":1060614625_0_0" index="0" allow="delivery bicycle pedestrian" speed="5.56" length="6.30" shape="776.03,478.78 774.58,484.90"/>
    </edge>
    <edge id=":1060614625_1" function="internal">
        <lane id=":1060614625_1_0" index="0" allow="delivery bicycle pedestrian" speed="5.56" length="4.82" shape="776.03,478.78 774.95,479.80 774.06,480.02 773.35,479.43 772.82,478.04"/>
    </edge>
    <edge id=":1060614625_2" function="internal">
        <lane id=":1060614625_2_0" index="0" allow="delivery bicycle pedestrian" speed="5.56" length="5.06" shape="769.05,480.29 770.43,480.47 771.52,480.15 772.32,479.34 772.82,478.04"/>
    </edge>
    <edge id=":1060614625_3" function="internal">
        <lane id=":1060614625_3_0" index="0" allow="delivery bicycle pedestrian" speed="5.56" length="7.88" shape="769.05,480.29 771.74,481.23 773.55,482.31 774.50,483.53 774.58,484.90"/>
    </edge>
    <edge id=":1060614625_4" function="internal">
        <lane id=":1060614625_4_0" index="0" allow="delivery bicycle pedestrian" speed="5.56" length="6.23" shape="771.37,484.11 772.82,478.04"/>
    </edge>
    <edge id=":1060614625_5" function="internal">
        <lane id=":1060614625_5_0" index="0" allow="delivery bicycle pedestrian" speed="5.56" length="4.82" shape="771.37,484.11 772.47,483.11 773.37,482.90 774.07,483.50 774.58,484.90"/>
    </edge>
    <edge id=":1060614630_0" function="internal">
        <lane id=":1060614630_0_0" index="0" allow="delivery bicycle pedestrian" speed="5.56" length="6.23" shape="756.10,507.56 750.07,506.02"/>
    </edge>
    <edge id=":1060614630_1" function="internal">
        <lane id=":1060614630_1_0" index="0" allow="delivery bicycle pedestrian" speed="5.56" length="5.02" shape="753.86,503.79 753.33,505.07 752.52,505.86 751.43,506.18 750.07,506.02"/>
    </edge>
    <edge id=":1060614634_0" function="internal">
        <lane id=":1060614634_0_0" index="0" allow="delivery bicycle pedestrian" speed="5.56" length="6.10" shape="768.95,507.53 767.53,513.47"/>
    </edge>
    <edge id=":1060614634_1" function="internal">
        <lane id=":1060614634_1_0" index="0" allow="delivery bicycle pedestrian" speed="5.56" length="7.84" shape="768.95,507.53 768.23,508.74 766.83,509.39 764.75,509.48 761.99,509.00"/>
    </edge>
    <edge id=":1060614634_2" function="internal">
        <lane id=":1060614634_2_0" index="0" allow="delivery bicycle pedestrian" speed="5.56" length="4.82" shape="768.95,507.53 767.85,508.53 766.95,508.73 766.25,508.13 765.74,506.73"/>
    </edge>
    <edge id=":1060614634_3" function="internal">
        <lane id=":1060614634_3_0" index="0" allow="delivery bicycle pedestrian" speed="5.56" length="5.00" shape="764.31,512.73 764.42,511.38 764.07,510.30 763.26,509.51 761.99,509.00"/>
    </edge>
    <edge id=":1060614634_4" function="internal">
        <lane id=":1060614634_4_0" index="0" allow="delivery bicycle pedestrian" speed="5.56" length="6.17" shape="764.31,512.73 765.74,506.73"/>
    </edge>
    <edge id=":1060614634_5" function="internal">
        <lane id=":1060614634_5_0" index="0" allow="delivery bicycle pedestrian" speed="5.56" length="4.82" shape="764.31,512.73 765.39,511.71 766.29,511.49 767.00,512.08 767.53,513.47"/>
    </edge>
    <edge id=":1060614636_0" function="internal">
        <lane id=":1060614636_0_0" index="0" allow="delivery bicycle pedestrian" speed="5.56" length="6.16" shape="742.75,504.10 736.77,502.60"/>
    </edge>
    <edge id=":1060614636_1" function="internal">
        <lane id=":1060614636_1_0" index="0" allow="delivery bicycle pedestrian" speed="5.56" length="5.02" shape="742.75,504.10 741.50,503.57 740.71,502.76 740.37,501.66 740.49,500.29"/>
    </edge>
    <edge id=":1060614639_0" function="internal">
        <lane id=":1060614639_0_0" index="0" disallow="tram rail_urban rail rail_electric ship" speed="9.73" length="5.01" shape="723.18,499.38 721.81,499.26 720.73,499.60 719.95,500.42 719.46,501.70"/>
    </edge>
    <edge id=":1060614639_1" function="internal">
        <lane id=":1060614639_1_0" index="0" disallow="tram rail_urban rail rail_electric ship" speed="9.73" length="7.85" shape="723.18,499.38 720.49,498.55 718.67,497.52 717.72,496.31 717.63,494.90"/>
    </edge>
    <edge id=":1060614639_2" function="internal">
        <lane id=":1060614639_2_0" index="0" disallow="tram rail_urban rail rail_electric ship" speed="13.89" length="6.21" shape="720.85,495.65 719.46,501.70"/>
    </edge>
    <edge id=":1060614639_3" function="internal">
        <lane id=":1060614639_3_0" index="0" disallow="tram rail_urban rail rail_electric ship" speed="13.89" length="2.41" shape="720.85,495.65 719.76,496.67 718.87,496.88"/>
    </edge>
    <edge id=":1060614639_6" function="internal">
        <lane id=":1060614639_6_0" index="0" speed="13.89" length="2.41" shape="718.87,496.88 718.16,496.30 717.63,494.90"/>
    </edge>
    <edge id=":1060614639_4" function="internal">
        <lane id=":1060614639_4_0" index="0" disallow="tram rail_urban rail rail_electric ship" speed="13.89" length="6.22" shape="716.24,500.96 717.63,494.90"/>
    </edge>
    <edge id=":1060614639_5" function="internal">
        <lane id=":1060614639_5_0" index="0" disallow="tram rail_urban rail rail_electric ship" speed="13.89" length="2.41" shape="716.24,500.96 717.32,499.94 718.21,499.72"/>
    </edge>
    <edge id=":1060614639_7" function="internal">
        <lane id=":1060614639_7_0" index="0" speed="13.89" length="2.41" shape="718.21,499.72 718.93,500.31 719.46,501.70"/>
    </edge>
    <edge id=":1349882500_0" function="internal">
        <lane id=":1349882500_0_0" index="0" disallow="tram rail_urban rail rail_electric ship" speed="13.89" length="9.50" shape="175.17,441.46 165.94,439.18"/>
    </edge>
    <edge id=":1349882500_1" function="internal">
        <lane id=":1349882500_1_0" index="0" allow="delivery bicycle pedestrian" speed="9.73" length="5.28" shape="175.17,441.46 172.54,440.40 170.89,438.75 170.85,438.64"/>
    </edge>
    <edge id=":1349882500_2" function="internal">
        <lane id=":1349882500_2_0" index="0" disallow="tram rail_urban rail rail_electric ship" speed="13.89" length="2.41" shape="175.17,441.46 174.16,440.36 173.96,439.46"/>
    </edge>
    <edge id=":1349882500_9" function="internal">
        <lane id=":1349882500_9_0" index="0" speed="9.73" length="5.05" shape="170.85,438.64 170.20,436.52 170.49,433.71"/>
    </edge>
    <edge id=":1349882500_10" function="internal">
        <lane id=":1349882500_10_0" index="0" speed="13.89" length="2.41" shape="173.96,439.46 174.56,438.76 175.96,438.25"/>
    </edge>
    <edge id=":1349882500_3" function="internal">
        <lane id=":1349882500_3_0" index="0" disallow="tram rail_urban rail rail_electric ship" speed="9.73" length="5.00" shape="173.69,434.50 173.55,435.86 173.88,436.94 174.69,437.74 175.96,438.25"/>
    </edge>
    <edge id=":1349882500_4" function="internal">
        <lane id=":1349882500_4_0" index="0" disallow="tram rail_urban rail rail_electric ship" speed="9.73" length="10.32" shape="173.69,434.50 172.63,437.12 170.98,438.78 168.75,439.46 165.94,439.18"/>
    </edge>
    <edge id=":1349882500_5" function="internal">
        <lane id=":1349882500_5_0" index="0" allow="delivery bicycle pedestrian" speed="5.56" length="4.82" shape="173.69,434.50 172.59,435.50 171.69,435.70 170.99,435.11 170.49,433.71"/>
    </edge>
    <edge id=":1349882500_6" function="internal">
        <lane id=":1349882500_6_0" index="0" allow="delivery bicycle pedestrian" speed="9.73" length="5.00" shape="166.73,435.97 168.10,436.11 169.18,435.78 169.97,434.98 170.49,433.71"/>
    </edge>
    <edge id=":1349882500_7" function="internal">
        <lane id=":1349882500_7_0" index="0" disallow="tram rail_urban rail rail_electric ship" speed="13.89" length="9.50" shape="166.73,435.97 175.96,438.25"/>
    </edge>
    <edge id=":1349882500_8" function="internal">
        <lane id=":1349882500_8_0" index="0" disallow="tram rail_urban rail rail_electric ship" speed="13.89" length="2.41" shape="166.73,435.97 167.74,437.07 167.94,437.97"/>
    </edge>
    <edge id=":1349882500_11" function="internal">
        <lane id=":1349882500_11_0" index="0" speed="13.89" length="2.41" shape="167.94,437.97 167.34,438.67 165.94,439.18"/>
    </edge>
    <edge id=":1366304583_0" function="internal">
        <lane id=":1366304583_0_0" index="0" disallow="tram rail_urban rail rail_electric ship" speed="13.89" length="9.46" shape="684.56,650.51 682.41,659.72"/>
    </edge>
    <edge id=":1366304583_1" function="internal">
        <lane id=":1366304583_1_0" index="0" allow="delivery bicycle pedestrian" speed="9.73" length="5.09" shape="684.56,650.51 683.54,653.07 681.90,654.73"/>
    </edge>
    <edge id=":1366304583_2" function="internal">
        <lane id=":1366304583_2_0" index="0" disallow="tram rail_urban rail rail_electric ship" speed="13.89" length="2.41" shape="684.56,650.51 683.47,651.52 682.57,651.73"/>
    </edge>
    <edge id=":1366304583_9" function="internal">
        <lane id=":1366304583_9_0" index="0" speed="9.73" length="5.22" shape="681.90,654.73 679.66,655.47 676.80,655.30"/>
    </edge>
    <edge id=":1366304583_10" function="internal">
        <lane id=":1366304583_10_0" index="0" speed="13.89" length="2.41" shape="682.57,651.73 681.87,651.14 681.35,649.74"/>
    </edge>
    <edge id=":1366304583_3" function="internal">
        <lane id=":1366304583_3_0" index="0" disallow="tram rail_urban rail rail_electric ship" speed="9.73" length="5.14" shape="677.44,652.06 678.89,652.16 680.02,651.80 680.84,650.99 681.35,649.74"/>
    </edge>
    <edge id=":1366304583_4" function="internal">
        <lane id=":1366304583_4_0" index="0" disallow="tram rail_urban rail rail_electric ship" speed="9.73" length="10.48" shape="677.44,652.06 680.16,653.02 681.90,654.61 682.65,656.84 682.41,659.72"/>
    </edge>
    <edge id=":1366304583_5" function="internal">
        <lane id=":1366304583_5_0" index="0" allow="delivery bicycle pedestrian" speed="5.56" length="4.82" shape="677.44,652.06 678.49,653.11 678.74,654.00 678.18,654.73 676.80,655.30"/>
    </edge>
    <edge id=":1366304583_6" function="internal">
        <lane id=":1366304583_6_0" index="0" allow="delivery bicycle pedestrian" speed="9.73" length="5.04" shape="679.19,658.98 679.30,657.60 678.94,656.53 678.11,655.76 676.80,655.30"/>
    </edge>
    <edge id=":1366304583_7" function="internal">
        <lane id=":1366304583_7_0" index="0" disallow="tram rail_urban rail rail_electric ship" speed="13.89" length="9.49" shape="679.19,658.98 681.35,649.74"/>
    </edge>
    <edge id=":1366304583_8" function="internal">
        <lane id=":1366304583_8_0" index="0" disallow="tram rail_urban rail rail_electric ship" speed="13.89" length="2.41" shape="679.19,658.98 680.27,657.96 681.17,657.74"/>
    </edge>
    <edge id=":1366304583_11" function="internal">
        <lane id=":1366304583_11_0" index="0" speed="13.89" length="2.41" shape="681.17,657.74 681.88,658.33 682.41,659.72"/>
    </edge>
    <edge id=":1943492330_0" function="internal">
        <lane id=":1943492330_0_0" index="0" allow="delivery bicycle pedestrian" speed="5.56" length="4.97" shape="489.35,468.43 488.00,468.34 486.93,468.69 486.15,469.50 485.64,470.76"/>
    </edge>
    <edge id=":1943492330_1" function="internal">
        <lane id=":1943492330_1_0" index="0" allow="delivery bicycle pedestrian" speed="5.56" length="8.97" shape="489.35,468.43 487.44,467.61 486.28,466.12 485.90,463.98 486.28,461.18"/>
    </edge>
    <edge id=":1943492330_2" function="internal">
        <lane id=":1943492330_2_0" index="0" allow="delivery bicycle pedestrian" speed="5.56" length="4.82" shape="489.35,468.43 488.32,467.36 488.09,466.47 488.66,465.75 490.05,465.20"/>
    </edge>
    <edge id=":1943492330_3" function="internal">
        <lane id=":1943492330_3_0" index="0" allow="delivery bicycle pedestrian" speed="5.56" length="9.65" shape="482.44,469.98 483.36,467.29 484.36,465.58 485.36,463.87 486.28,461.18"/>
    </edge>
    <edge id=":1943492330_4" function="internal">
        <lane id=":1943492330_4_0" index="0" allow="delivery bicycle pedestrian" speed="5.56" length="10.18" shape="482.44,469.98 483.47,467.40 485.08,465.74 487.27,465.01 490.05,465.20"/>
    </edge>
    <edge id=":1943492330_5" function="internal">
        <lane id=":1943492330_5_0" index="0" allow="delivery bicycle pedestrian" speed="5.56" length="4.82" shape="482.44,469.98 483.53,468.97 484.43,468.77 485.13,469.36 485.64,470.76"/>
    </edge>
    <edge id=":1943492334_0" function="internal">
        <lane id=":1943492334_0_0" index="0" allow="delivery bicycle pedestrian" speed="5.56" length="5.08" shape="508.68,472.57 507.32,472.49 506.24,472.87 505.45,473.72 504.95,475.04"/>
    </edge>
    <edge id=":1943492334_1" function="internal">
        <lane id=":1943492334_1_0" index="0" allow="delivery bicycle pedestrian" speed="5.56" length="9.50" shape="508.68,472.57 499.39,470.58"/>
    </edge>
    <edge id=":1943492334_2" function="internal">
        <lane id=":1943492334_2_0" index="0" allow="delivery bicycle pedestrian" speed="5.56" length="4.82" shape="508.68,472.57 507.64,471.51 507.41,470.62 507.99,469.90 509.37,469.35"/>
    </edge>
    <edge id=":1943492334_3" function="internal">
        <lane id=":1943492334_3_0" index="0" allow="delivery bicycle pedestrian" speed="5.56" length="9.50" shape="500.08,467.36 509.37,469.35"/>
    </edge>
    <edge id=":1943492334_4" function="internal">
        <lane id=":1943492334_4_0" index="0" allow="delivery bicycle pedestrian" speed="5.56" length="10.42" shape="500.08,467.36 502.76,468.35 504.47,469.96 505.20,472.19 504.95,475.04"/>
    </edge>
    <edge id=":1943492334_5" function="internal">
        <lane id=":1943492334_5_0" index="0" allow="delivery bicycle pedestrian" speed="5.56" length="4.82" shape="500.08,467.36 501.12,468.42 501.35,469.32 500.77,470.04 499.39,470.58"/>
    </edge>
    <edge id=":1943492334_6" function="internal">
        <lane id=":1943492334_6_0" index="0" allow="delivery bicycle pedestrian" speed="5.56" length="5.02" shape="501.73,474.29 501.85,472.91 501.50,471.84 500.68,471.06 499.39,470.58"/>
    </edge>
    <edge id=":1943492334_7" function="internal">
        <lane id=":1943492334_7_0" index="0" allow="delivery bicycle pedestrian" speed="5.56" length="10.33" shape="501.73,474.29 502.76,471.63 504.38,469.92 506.58,469.16 509.37,469.35"/>
    </edge>
    <edge id=":1943492334_8" function="internal">
        <lane id=":1943492334_8_0" index="0" allow="delivery bicycle pedestrian" speed="5.56" length="4.82" shape="501.73,474.29 502.82,473.27 503.72,473.06 504.43,473.65 504.95,475.04"/>
    </edge>
    <edge id=":1943492336_0" function="internal">
        <lane id=":1943492336_0_0" index="0" disallow="tram rail_urban rail rail_electric ship" speed="13.89" length="8.40" shape="527.98,471.34 526.13,479.54"/>
    </edge>
    <edge id=":1943492336_1" function="internal">
        <lane id=":1943492336_1_0" index="0" allow="delivery bicycle pedestrian" speed="9.73" length="4.49" shape="527.98,471.34 527.08,473.50 525.54,474.85 525.44,474.87"/>
    </edge>
    <edge id=":1943492336_2" function="internal">
        <lane id=":1943492336_2_0" index="0" disallow="tram rail_urban rail rail_electric ship" speed="13.89" length="2.41" shape="527.98,471.34 526.90,472.37 526.01,472.59"/>
    </edge>
    <edge id=":1943492336_9" function="internal">
        <lane id=":1943492336_9_0" index="0" speed="9.73" length="4.97" shape="525.44,474.87 523.36,475.39 520.55,475.12"/>
    </edge>
    <edge id=":1943492336_10" function="internal">
        <lane id=":1943492336_10_0" index="0" speed="13.89" length="2.41" shape="526.01,472.59 525.29,472.01 524.76,470.62"/>
    </edge>
    <edge id=":1943492336_3" function="internal">
        <lane id=":1943492336_3_0" index="0" disallow="tram rail_urban rail rail_electric ship" speed="9.73" length="4.20" shape="521.24,471.89 522.61,472.06 523.66,471.90 524.37,471.42 524.76,470.62"/>
    </edge>
    <edge id=":1943492336_4" function="internal">
        <lane id=":1943492336_4_0" index="0" disallow="tram rail_urban rail rail_electric ship" speed="9.73" length="10.38" shape="521.24,471.89 523.91,472.88 525.62,474.48 526.35,476.70 526.13,479.54"/>
    </edge>
    <edge id=":1943492336_5" function="internal">
        <lane id=":1943492336_5_0" index="0" allow="delivery bicycle pedestrian" speed="5.56" length="4.82" shape="521.24,471.89 522.27,472.96 522.51,473.85 521.93,474.57 520.55,475.12"/>
    </edge>
    <edge id=":1943492336_6" function="internal">
        <lane id=":1943492336_6_0" index="0" allow="delivery bicycle pedestrian" speed="9.73" length="5.01" shape="522.91,478.81 523.02,477.44 522.66,476.37 521.84,475.59 520.55,475.12"/>
    </edge>
    <edge id=":1943492336_7" function="internal">
        <lane id=":1943492336_7_0" index="0" disallow="tram rail_urban rail rail_electric ship" speed="13.89" length="8.40" shape="522.91,478.81 524.76,470.62"/>
    </edge>
    <edge id=":1943492336_8" function="internal">
        <lane id=":1943492336_8_0" index="0" disallow="tram rail_urban rail rail_electric ship" speed="13.89" length="2.41" shape="522.91,478.81 523.99,477.79 524.88,477.57"/>
    </edge>
    <edge id=":1943492336_11" function="internal">
        <lane id=":1943492336_11_0" index="0" speed="13.89" length="2.41" shape="524.88,477.57 525.59,478.15 526.13,479.54"/>
    </edge>
    <edge id=":1943492338_0" function="internal">
        <lane id=":1943492338_0_0" index="0" allow="delivery bicycle pedestrian" speed="5.56" length="5.05" shape="483.91,491.21 482.52,491.09 481.42,491.43 480.61,492.23 480.10,493.50"/>
    </edge>
    <edge id=":1943492338_1" function="internal">
        <lane id=":1943492338_1_0" index="0" allow="delivery bicycle pedestrian" speed="5.56" length="10.38" shape="483.91,491.21 481.25,490.19 479.57,488.55 478.87,486.32 479.14,483.48"/>
    </edge>
    <edge id=":1943492338_2" function="internal">
        <lane id=":1943492338_2_0" index="0" allow="delivery bicycle pedestrian" speed="5.56" length="4.82" shape="483.91,491.21 482.89,490.13 482.67,489.23 483.26,488.52 484.65,488.00"/>
    </edge>
    <edge id=":1943492338_3" function="internal">
        <lane id=":1943492338_3_0" index="0" allow="delivery bicycle pedestrian" speed="5.56" length="5.01" shape="482.35,484.27 482.22,485.64 482.55,486.71 483.37,487.50 484.65,488.00"/>
    </edge>
    <edge id=":1943492338_4" function="internal">
        <lane id=":1943492338_4_0" index="0" allow="delivery bicycle pedestrian" speed="5.56" length="9.50" shape="482.35,484.27 480.10,493.50"/>
    </edge>
    <edge id=":1943492338_5" function="internal">
        <lane id=":1943492338_5_0" index="0" allow="delivery bicycle pedestrian" speed="5.56" length="4.82" shape="482.35,484.27 481.25,485.27 480.36,485.48 479.65,484.88 479.14,483.48"/>
    </edge>
    <edge id=":1943492338_6" function="internal">
        <lane id=":1943492338_6_0" index="0" allow="delivery bicycle pedestrian" speed="5.56" length="9.50" shape="476.89,492.71 479.14,483.48"/>
    </edge>
    <edge id=":1943492338_7" function="internal">
        <lane id=":1943492338_7_0" index="0" allow="delivery bicycle pedestrian" speed="5.56" length="10.33" shape="476.89,492.71 477.94,490.11 479.58,488.46 481.82,487.75 484.65,488.00"/>
    </edge>
    <edge id=":1943492338_8" function="internal">
        <lane id=":1943492338_8_0" index="0" allow="delivery bicycle pedestrian" speed="5.56" length="4.82" shape="476.89,492.71 477.99,491.71 478.89,491.50 479.59,492.10 480.10,493.50"/>
    </edge>
    <edge id=":2195113335_0" function="internal">
        <lane id=":2195113335_0_0" index="0" disallow="tram rail_urban rail rail_electric ship" speed="13.89" length="6.20" shape="799.81,588.63 793.78,587.20"/>
    </edge>
    <edge id=":2195113335_1" function="internal">
        <lane id=":2195113335_1_0" index="0" allow="rail rail_electric" speed="83.33" length="9.50" shape="798.27,581.69 796.08,590.93"/>
    </edge>
    <edge id=":2195113335_2" function="internal">
        <lane id=":2195113335_2_0" index="0" disallow="tram rail_urban rail rail_electric ship" speed="13.89" length="6.20" shape="794.54,583.99 800.57,585.42"/>
    </edge>
    <edge id=":2442177559_0" function="internal">
        <lane id=":2442177559_0_0" index="0" disallow="tram rail_urban rail rail_electric ship" speed="22.22" length="3.66" shape="230.91,455.99 230.01,459.54"/>
    </edge>
    <edge id=":2442177559_1" function="internal">
        <lane id=":2442177559_1_0" index="0" disallow="tram rail_urban rail rail_electric ship" speed="22.22" length="2.41" shape="230.91,455.99 229.82,457.01 228.92,457.22"/>
    </edge>
    <edge id=":2442177559_4" function="internal">
        <lane id=":2442177559_4_0" index="0" speed="22.22" length="2.41" shape="228.92,457.22 228.21,456.63 227.69,455.23"/>
    </edge>
    <edge id=":2442177559_2" function="internal">
        <lane id=":2442177559_2_0" index="0" disallow="tram rail_urban rail rail_electric ship" speed="22.22" length="3.60" shape="226.81,458.73 227.69,455.23"/>
    </edge>
    <edge id=":2442177559_3" function="internal">
        <lane id=":2442177559_3_0" index="0" disallow="tram rail_urban rail rail_electric ship" speed="22.22" length="2.41" shape="226.81,458.73 227.91,457.73 228.82,457.53"/>
    </edge>
    <edge id=":2442177559_5" function="internal">
        <lane id=":2442177559_5_0" index="0" speed="22.22" length="2.41" shape="228.82,457.53 229.51,458.14 230.01,459.54"/>
    </edge>
    <edge id=":2558780793_0" function="internal">
        <lane id=":2558780793_0_0" index="0" allow="delivery bicycle pedestrian" speed="5.56" length="9.50" shape="709.04,339.34 706.84,348.59"/>
    </edge>
    <edge id=":2558780793_1" function="internal">