<?xml version="1.0" encoding="UTF-8"?>

<!-- generated on Sun Apr  7 16:04:37 2019 by SUMO netconvert Version dev-SVN-rUNKNOWN
<?xml version="1.0" encoding="UTF-8"?>

<configuration xmlns:xsi="http://www.w3.org/2001/XMLSchema-instance" xsi:noNamespaceSchemaLocation="http://sumo.dlr.de/xsd/netconvertConfiguration.xsd">

    <input>
        <osm-files value="davis_drew_cowell_valdora.osm"/>
    </input>

    <output>
        <output-file value="01_davis.net.xml"/>
    </output>

    <projection>
        <proj.utm value="true"/>
    </projection>

</configuration>
-->

<net version="0.27" xmlns:xsi="http://www.w3.org/2001/XMLSchema-instance" xsi:noNamespaceSchemaLocation="http://sumo.dlr.de/xsd/net_file.xsd">

    <location netOffset="-610624.98,-4266112.41" convBoundary="0.00,0.00,886.15,915.22" origBoundary="-121.730655,38.536452,-121.720545,38.544764" projParameter="+proj=utm +zone=10 +ellps=WGS84 +datum=WGS84 +units=m +no_defs"/>

    <type id="highway.bridleway" priority="1" numLanes="1" speed="2.78" allow="pedestrian" oneway="1" width="2.00"/>
    <type id="highway.bus_guideway" priority="1" numLanes="1" speed="8.33" allow="bus" oneway="1"/>
    <type id="highway.cycleway" priority="1" numLanes="1" speed="5.56" allow="bicycle" oneway="0" width="1.00"/>
    <type id="highway.footway" priority="1" numLanes="1" speed="2.78" allow="pedestrian" oneway="1" width="2.00"/>
    <type id="highway.ford" priority="1" numLanes="1" speed="2.78" allow="army" oneway="0"/>
    <type id="highway.living_street" priority="3" numLanes="1" speed="2.78" disallow="tram rail_urban rail rail_electric ship" oneway="0"/>
    <type id="highway.motorway" priority="13" numLanes="2" speed="44.44" allow="private emergency authority army vip passenger hov taxi bus coach delivery truck trailer motorcycle evehicle custom1 custom2" oneway="1"/>
    <type id="highway.motorway_link" priority="12" numLanes="1" speed="22.22" allow="private emergency authority army vip passenger hov taxi bus coach delivery truck trailer motorcycle evehicle custom1 custom2" oneway="1"/>
    <type id="highway.path" priority="1" numLanes="1" speed="2.78" allow="bicycle pedestrian" oneway="1" width="2.00"/>
    <type id="highway.pedestrian" priority="1" numLanes="1" speed="2.78" allow="pedestrian" oneway="1" width="2.00"/>
    <type id="highway.primary" priority="9" numLanes="2" speed="27.78" disallow="tram rail_urban rail rail_electric ship" oneway="0"/>
    <type id="highway.primary_link" priority="8" numLanes="1" speed="22.22" disallow="tram rail_urban rail rail_electric ship" oneway="0"/>
    <type id="highway.raceway" priority="14" numLanes="2" speed="83.33" allow="vip" oneway="0"/>
    <type id="highway.residential" priority="4" numLanes="1" speed="13.89" disallow="tram rail_urban rail rail_electric ship" oneway="0"/>
    <type id="highway.secondary" priority="7" numLanes="2" speed="27.78" disallow="tram rail_urban rail rail_electric ship" oneway="0"/>
    <type id="highway.secondary_link" priority="6" numLanes="1" speed="22.22" disallow="tram rail_urban rail rail_electric ship" oneway="0"/>
    <type id="highway.service" priority="2" numLanes="1" speed="5.56" allow="delivery bicycle pedestrian" oneway="0"/>
    <type id="highway.services" priority="1" numLanes="1" speed="8.33" disallow="tram rail_urban rail rail_electric ship" oneway="0"/>
    <type id="highway.stairs" priority="1" numLanes="1" speed="1.39" allow="pedestrian" oneway="1" width="2.00"/>
    <type id="highway.step" priority="1" numLanes="1" speed="1.39" allow="pedestrian" oneway="1" width="2.00"/>
    <type id="highway.steps" priority="1" numLanes="1" speed="1.39" allow="pedestrian" oneway="1" width="2.00"/>
    <type id="highway.tertiary" priority="6" numLanes="1" speed="22.22" disallow="tram rail_urban rail rail_electric ship" oneway="0"/>
    <type id="highway.tertiary_link" priority="5" numLanes="1" speed="22.22" disallow="tram rail_urban rail rail_electric ship" oneway="0"/>
    <type id="highway.track" priority="1" numLanes="1" speed="5.56" disallow="tram rail_urban rail rail_electric ship" oneway="0"/>
    <type id="highway.trunk" priority="11" numLanes="2" speed="27.78" disallow="tram rail_urban rail rail_electric bicycle pedestrian ship" oneway="0"/>
    <type id="highway.trunk_link" priority="10" numLanes="1" speed="22.22" disallow="tram rail_urban rail rail_electric bicycle pedestrian ship" oneway="0"/>
    <type id="highway.unclassified" priority="5" numLanes="1" speed="13.89" disallow="tram rail_urban rail rail_electric ship" oneway="0"/>
    <type id="highway.unsurfaced" priority="1" numLanes="1" speed="8.33" disallow="tram rail_urban rail rail_electric ship" oneway="0"/>
    <type id="railway.light_rail" priority="15" numLanes="1" speed="27.78" allow="rail_urban" oneway="1"/>
    <type id="railway.preserved" priority="15" numLanes="1" speed="27.78" allow="rail" oneway="1"/>
    <type id="railway.rail" priority="15" numLanes="1" speed="83.33" allow="rail rail_electric" oneway="1"/>
    <type id="railway.subway" priority="15" numLanes="1" speed="27.78" allow="rail_urban" oneway="1"/>
    <type id="railway.tram" priority="15" numLanes="1" speed="13.89" allow="tram" oneway="1"/>

    <edge id=":3701376005_0" function="internal">
        <lane id=":3701376005_0_0" index="0" disallow="tram rail_urban rail rail_electric ship" speed="13.89" length="9.30" shape="331.84,255.33 331.26,246.05"/>
    </edge>
    <edge id=":3701376005_1" function="internal">
        <lane id=":3701376005_1_0" index="0" allow="delivery bicycle pedestrian" speed="9.73" length="5.15" shape="331.84,255.33 332.12,252.53 333.23,250.48"/>
    </edge>
    <edge id=":3701376005_2" function="internal">
        <lane id=":3701376005_2_0" index="0" disallow="tram rail_urban rail rail_electric ship" speed="13.89" length="2.41" shape="331.84,255.33 332.61,254.06 333.42,253.61"/>
    </edge>
    <edge id=":3701376005_9" function="internal">
        <lane id=":3701376005_9_0" index="0" speed="9.73" length="5.15" shape="333.23,250.48 335.17,249.19 337.94,248.66"/>
    </edge>
    <edge id=":3701376005_10" function="internal">
        <lane id=":3701376005_10_0" index="0" speed="13.89" length="2.41" shape="333.42,253.61 334.26,253.99 335.14,255.19"/>
    </edge>
    <edge id=":3701376005_3" function="internal">
        <lane id=":3701376005_3_0" index="0" disallow="tram rail_urban rail rail_electric ship" speed="9.73" length="4.99" shape="338.10,251.96 336.75,252.21 335.81,252.84 335.27,253.83 335.14,255.19"/>
    </edge>
    <edge id=":3701376005_4" function="internal">
        <lane id=":3701376005_4_0" index="0" disallow="tram rail_urban rail rail_electric ship" speed="9.73" length="10.22" shape="338.10,251.96 335.30,251.70 333.23,250.63 331.88,248.75 331.26,246.05"/>
    </edge>
    <edge id=":3701376005_5" function="internal">
        <lane id=":3701376005_5_0" index="0" allow="delivery bicycle pedestrian" speed="5.56" length="4.82" shape="338.10,251.96 336.82,251.19 336.37,250.39 336.74,249.54 337.94,248.66"/>
    </edge>
    <edge id=":3701376005_6" function="internal">
        <lane id=":3701376005_6_0" index="0" allow="delivery bicycle pedestrian" speed="9.73" length="5.04" shape="334.55,245.78 334.86,247.09 335.52,248.01 336.55,248.54 337.94,248.66"/>
    </edge>
    <edge id=":3701376005_7" function="internal">
        <lane id=":3701376005_7_0" index="0" disallow="tram rail_urban rail rail_electric ship" speed="13.89" length="9.43" shape="334.55,245.78 335.14,255.19"/>
    </edge>
    <edge id=":3701376005_8" function="internal">
        <lane id=":3701376005_8_0" index="0" disallow="tram rail_urban rail rail_electric ship" speed="13.89" length="2.41" shape="334.55,245.78 333.83,247.08 333.04,247.56"/>
    </edge>
    <edge id=":3701376005_11" function="internal">
        <lane id=":3701376005_11_0" index="0" speed="13.89" length="2.41" shape="333.04,247.56 332.19,247.21 331.26,246.05"/>
    </edge>
    <edge id=":596986224_0" function="internal">
        <lane id=":596986224_0_0" index="0" disallow="tram rail_urban rail rail_electric ship" speed="27.78" length="4.82" shape="-0.02,384.37 -1.25,383.53 -1.65,382.70 -1.23,381.88 0.02,381.07"/>
    </edge>
    <edge id=":597021867_0" function="internal">
        <lane id=":597021867_0_0" index="0" allow="delivery bicycle pedestrian" speed="16.67" length="5.06" shape="435.99,378.93 434.59,378.95 433.56,379.41 432.88,380.31 432.56,381.67"/>
    </edge>
    <edge id=":597021867_1" function="internal">
        <lane id=":597021867_1_0" index="0" disallow="tram rail_urban rail rail_electric ship" speed="27.78" length="9.69" shape="435.99,378.93 426.45,377.92"/>
        <lane id=":597021867_1_1" index="1" disallow="tram rail_urban rail rail_electric ship" speed="27.78" length="9.69" shape="436.43,375.66 426.69,374.63"/>
    </edge>
    <edge id=":597021867_3" function="internal">
        <lane id=":597021867_3_0" index="0" allow="delivery bicycle pedestrian" speed="16.67" length="4.52" shape="436.43,375.66 433.60,374.68 432.57,373.55"/>
    </edge>
    <edge id=":597021867_4" function="internal">
        <lane id=":597021867_4_0" index="0" disallow="tram rail_urban rail rail_electric ship" speed="27.78" length="2.41" shape="436.43,375.66 435.31,374.68 435.02,373.81"/>
    </edge>
    <edge id=":597021867_18" function="internal">
        <lane id=":597021867_18_0" index="0" speed="16.67" length="8.77" shape="432.57,373.55 431.72,372.61 430.77,369.47 430.77,365.25"/>
    </edge>
    <edge id=":597021867_19" function="internal">
        <lane id=":597021867_19_0" index="0" speed="27.78" length="2.41" shape="435.02,373.81 435.53,373.04 436.87,372.39"/>
    </edge>
    <edge id=":597021867_5" function="internal">
        <lane id=":597021867_5_0" index="0" disallow="tram rail_urban rail rail_electric ship" speed="16.67" length="5.45" shape="434.05,365.57 434.14,366.94 434.72,367.99 435.77,368.72 437.31,369.12"/>
    </edge>
    <edge id=":597021867_6" function="internal">
        <lane id=":597021867_6_0" index="0" allow="delivery bicycle pedestrian" speed="5.56" length="16.17" shape="434.05,365.57 432.56,381.67"/>
    </edge>
    <edge id=":597021867_7" function="internal">
        <lane id=":597021867_7_0" index="0" disallow="tram rail_urban rail rail_electric ship" speed="16.67" length="13.11" shape="434.05,365.57 433.24,369.72 431.75,372.61 429.56,374.25 426.69,374.63"/>
    </edge>
    <edge id=":597021867_8" function="internal">
        <lane id=":597021867_8_0" index="0" allow="delivery bicycle pedestrian" speed="5.56" length="4.82" shape="434.05,365.57 433.11,366.72 432.25,367.05 431.47,366.56 430.77,365.25"/>
    </edge>
    <edge id=":597021867_9" function="internal">
        <lane id=":597021867_9_0" index="0" allow="delivery bicycle pedestrian" speed="16.67" length="5.16" shape="427.19,368.05 428.64,367.97 429.72,367.47 430.43,366.57 430.77,365.25"/>
    </edge>
    <edge id=":597021867_10" function="internal">
        <lane id=":597021867_10_0" index="0" disallow="tram rail_urban rail rail_electric ship" speed="27.78" length="10.08" shape="427.19,368.05 437.31,369.12"/>
        <lane id=":597021867_10_1" index="1" disallow="tram rail_urban rail rail_electric ship" speed="27.78" length="10.08" shape="426.94,371.34 436.87,372.39"/>
    </edge>
    <edge id=":597021867_12" function="internal">
        <lane id=":597021867_12_0" index="0" allow="delivery bicycle pedestrian" speed="16.67" length="4.69" shape="426.94,371.34 429.72,372.17 430.94,373.47"/>
    </edge>
    <edge id=":597021867_13" function="internal">
        <lane id=":597021867_13_0" index="0" disallow="tram rail_urban rail rail_electric ship" speed="27.78" length="2.52" shape="426.94,371.34 428.11,372.26 428.46,373.11 428.41,373.21"/>
    </edge>
    <edge id=":597021867_20" function="internal">
        <lane id=":597021867_20_0" index="0" speed="16.67" length="8.59" shape="430.94,373.47 431.59,374.17 432.53,377.34 432.56,381.67"/>
    </edge>
    <edge id=":597021867_21" function="internal">
        <lane id=":597021867_21_0" index="0" speed="27.78" length="2.30" shape="428.41,373.21 427.99,373.90 426.69,374.63"/>
    </edge>
    <edge id=":597021867_14" function="internal">
        <lane id=":597021867_14_0" index="0" disallow="tram rail_urban rail rail_electric ship" speed="16.67" length="5.11" shape="429.28,381.38 429.20,379.96 428.71,378.91 427.79,378.23 426.45,377.92"/>
    </edge>
    <edge id=":597021867_15" function="internal">
        <lane id=":597021867_15_0" index="0" allow="delivery bicycle pedestrian" speed="5.56" length="16.20" shape="429.28,381.38 430.77,365.25"/>
    </edge>
    <edge id=":597021867_16" function="internal">
        <lane id=":597021867_16_0" index="0" disallow="tram rail_urban rail rail_electric ship" speed="16.67" length="13.41" shape="429.28,381.38 430.08,377.11 431.61,374.19 433.87,372.61 436.87,372.39"/>
    </edge>
    <edge id=":597021867_17" function="internal">
        <lane id=":597021867_17_0" index="0" allow="delivery bicycle pedestrian" speed="5.56" length="4.82" shape="429.28,381.38 430.20,380.22 431.06,379.88 431.85,380.37 432.56,381.67"/>
    </edge>
    <edge id=":597021870_0" function="internal">
        <lane id=":597021870_0_0" index="0" allow="delivery bicycle pedestrian" speed="16.67" length="5.09" shape="460.52,383.15 459.11,383.05 458.05,383.44 457.32,384.31 456.93,385.67"/>
    </edge>
    <edge id=":597021870_1" function="internal">
        <lane id=":597021870_1_0" index="0" disallow="tram rail_urban rail rail_electric ship" speed="27.78" length="9.59" shape="460.52,383.15 451.16,381.26"/>
        <lane id=":597021870_1_1" index="1" disallow="tram rail_urban rail rail_electric ship" speed="27.78" length="9.59" shape="461.21,379.92 451.76,378.02"/>
    </edge>
    <edge id=":597021870_3" function="internal">
        <lane id=":597021870_3_0" index="0" disallow="tram rail_urban rail rail_electric ship" speed="27.78" length="2.41" shape="461.21,379.92 460.17,378.85 459.94,377.96"/>
    </edge>
    <edge id=":597021870_11" function="internal">
        <lane id=":597021870_11_0" index="0" speed="27.78" length="2.41" shape="459.94,377.96 460.51,377.24 461.89,376.69"/>
    </edge>
    <edge id=":597021870_4" function="internal">
        <lane id=":597021870_4_0" index="0" disallow="tram rail_urban rail rail_electric ship" speed="27.78" length="9.75" shape="452.98,371.53 462.58,373.46"/>
        <lane id=":597021870_4_1" index="1" disallow="tram rail_urban rail rail_electric ship" speed="27.78" length="9.75" shape="452.37,374.77 461.89,376.69"/>
    </edge>
    <edge id=":597021870_6" function="internal">
        <lane id=":597021870_6_0" index="0" allow="delivery bicycle pedestrian" speed="16.67" length="4.38" shape="452.37,374.77 454.87,375.87 455.85,377.21"/>
    </edge>
    <edge id=":597021870_7" function="internal">
        <lane id=":597021870_7_0" index="0" disallow="tram rail_urban rail rail_electric ship" speed="27.78" length="2.41" shape="452.37,374.77 453.44,375.81 453.69,376.70"/>
    </edge>
    <edge id=":597021870_12" function="internal">
        <lane id=":597021870_12_0" index="0" speed="16.67" length="8.74" shape="455.85,377.21 456.46,378.05 457.15,381.32 456.93,385.67"/>
    </edge>
    <edge id=":597021870_13" function="internal">
        <lane id=":597021870_13_0" index="0" speed="27.78" length="2.41" shape="453.69,376.70 453.13,377.43 451.76,378.02"/>
    </edge>
    <edge id=":597021870_8" function="internal">
        <lane id=":597021870_8_0" index="0" disallow="tram rail_urban rail rail_electric ship" speed="16.67" length="5.28" shape="453.66,385.22 453.68,383.69 453.27,382.53 452.43,381.72 451.16,381.26"/>
    </edge>
    <edge id=":597021870_9" function="internal">
        <lane id=":597021870_9_0" index="0" disallow="tram rail_urban rail rail_electric ship" speed="16.67" length="13.60" shape="453.66,385.22 454.69,380.94 456.41,378.09 458.81,376.67 461.89,376.69"/>
    </edge>
    <edge id=":597021870_10" function="internal">
        <lane id=":597021870_10_0" index="0" allow="delivery bicycle pedestrian" speed="5.56" length="4.82" shape="453.66,385.22 454.65,384.10 455.52,383.81 456.28,384.33 456.93,385.67"/>
    </edge>
    <edge id=":597021905_0" function="internal">
        <lane id=":597021905_0_0" index="0" allow="delivery bicycle pedestrian" speed="5.56" length="4.82" shape="326.06,494.04 324.91,493.10 324.59,492.24 325.08,491.46 326.40,490.76"/>
    </edge>
    <edge id=":597021915_0" function="internal">
        <lane id=":597021915_0_0" index="0" allow="delivery bicycle pedestrian" speed="5.56" length="9.52" shape="403.77,501.97 394.29,501.02"/>
    </edge>
    <edge id=":597021915_1" function="internal">
        <lane id=":597021915_1_0" index="0" allow="delivery bicycle pedestrian" speed="5.56" length="10.33" shape="403.77,501.97 401.03,501.29 399.16,499.90 398.15,497.79 398.02,494.95"/>
    </edge>
    <edge id=":597021915_2" function="internal">
        <lane id=":597021915_2_0" index="0" allow="delivery bicycle pedestrian" speed="5.56" length="4.82" shape="403.77,501.97 402.62,501.02 402.29,500.16 402.78,499.38 404.09,498.68"/>
    </edge>
    <edge id=":597021915_3" function="internal">
        <lane id=":597021915_3_0" index="0" allow="delivery bicycle pedestrian" speed="5.56" length="5.03" shape="401.30,495.26 401.37,496.64 401.85,497.68 402.76,498.36 404.09,498.68"/>
    </edge>
    <edge id=":597021915_4" function="internal">
        <lane id=":597021915_4_0" index="0" allow="delivery bicycle pedestrian" speed="5.56" length="10.37" shape="401.30,495.26 400.64,498.02 399.25,499.91 397.14,500.90 394.29,501.02"/>
    </edge>
    <edge id=":597021915_5" function="internal">
        <lane id=":597021915_5_0" index="0" allow="delivery bicycle pedestrian" speed="5.56" length="4.82" shape="401.30,495.26 400.37,496.41 399.51,496.75 398.72,496.26 398.02,494.95"/>
    </edge>
    <edge id=":597021915_6" function="internal">
        <lane id=":597021915_6_0" index="0" allow="delivery bicycle pedestrian" speed="5.56" length="5.01" shape="394.63,497.74 396.00,497.68 397.03,497.20 397.70,496.29 398.02,494.95"/>
    </edge>
    <edge id=":597021915_7" function="internal">
        <lane id=":597021915_7_0" index="0" allow="delivery bicycle pedestrian" speed="5.56" length="9.51" shape="394.63,497.74 404.09,498.68"/>
    </edge>
    <edge id=":597021915_8" function="internal">
        <lane id=":597021915_8_0" index="0" allow="delivery bicycle pedestrian" speed="5.56" length="4.82" shape="394.63,497.74 395.78,498.68 396.10,499.54 395.61,500.32 394.29,501.02"/>
    </edge>
    <edge id=":597021942_0" function="internal">
        <lane id=":597021942_0_0" index="0" allow="delivery bicycle pedestrian" speed="5.56" length="9.65" shape="430.62,403.86 429.63,413.46"/>
    </edge>
    <edge id=":597021942_1" function="internal">
        <lane id=":597021942_1_0" index="0" allow="delivery bicycle pedestrian" speed="5.56" length="10.42" shape="430.62,403.86 429.97,406.53 428.57,408.40 426.41,409.48 423.50,409.75"/>
    </edge>
    <edge id=":597021942_2" function="internal">
        <lane id=":597021942_2_0" index="0" allow="delivery bicycle pedestrian" speed="5.56" length="4.82" shape="430.62,403.86 429.69,405.02 428.83,405.36 428.04,404.88 427.33,403.57"/>
    </edge>
    <edge id=":597021942_3" function="internal">
        <lane id=":597021942_3_0" index="0" allow="delivery bicycle pedestrian" speed="5.56" length="5.29" shape="423.63,406.45 425.15,406.32 426.27,405.80 427.00,404.88 427.33,403.57"/>
    </edge>
    <edge id=":597021942_4" function="internal">
        <lane id=":597021942_4_0" index="0" allow="delivery bicycle pedestrian" speed="5.56" length="10.72" shape="423.63,406.45 426.55,406.99 428.52,408.33 429.55,410.49 429.63,413.46"/>
    </edge>
    <edge id=":597021942_5" function="internal">
        <lane id=":597021942_5_0" index="0" allow="delivery bicycle pedestrian" speed="5.56" length="4.82" shape="423.63,406.45 424.83,407.32 425.21,408.16 424.77,408.97 423.50,409.75"/>
    </edge>
    <edge id=":597021942_6" function="internal">
        <lane id=":597021942_6_0" index="0" allow="delivery bicycle pedestrian" speed="5.56" length="5.09" shape="426.35,413.08 426.31,411.67 425.83,410.64 424.89,410.00 423.50,409.75"/>
    </edge>
    <edge id=":597021942_7" function="internal">
        <lane id=":597021942_7_0" index="0" allow="delivery bicycle pedestrian" speed="5.56" length="9.56" shape="426.35,413.08 427.33,403.57"/>
    </edge>
    <edge id=":597021942_8" function="internal">
        <lane id=":597021942_8_0" index="0" allow="delivery bicycle pedestrian" speed="5.56" length="4.82" shape="426.35,413.08 427.31,411.95 428.18,411.63 428.95,412.14 429.63,413.46"/>
    </edge>
    <edge id=":597021943_0" function="internal">
        <lane id=":597021943_0_0" index="0" allow="delivery bicycle pedestrian" speed="5.56" length="0.25" shape="469.65,420.60 469.41,420.57"/>
    </edge>
    <edge id=":597021943_1" function="internal">
        <lane id=":597021943_1_0" index="0" allow="delivery bicycle pedestrian" speed="5.56" length="2.41" shape="469.65,420.60 468.51,419.65 468.18,418.78"/>
    </edge>
    <edge id=":597021943_4" function="internal">
        <lane id=":597021943_4_0" index="0" speed="5.56" length="2.41" shape="468.18,418.78 468.67,418.01 469.99,417.31"/>
    </edge>
    <edge id=":597021943_2" function="internal">
        <lane id=":597021943_2_0" index="0" allow="delivery bicycle pedestrian" speed="5.56" length="0.31" shape="469.68,417.28 469.99,417.31"/>
    </edge>
    <edge id=":597021943_3" function="internal">
        <lane id=":597021943_3_0" index="0" allow="delivery bicycle pedestrian" speed="5.56" length="2.41" shape="469.68,417.28 470.84,418.21 471.19,419.06"/>
    </edge>
    <edge id=":597021943_5" function="internal">
        <lane id=":597021943_5_0" index="0" speed="5.56" length="2.41" shape="471.19,419.06 470.71,419.85 469.41,420.57"/>
    </edge>
    <edge id=":597021945_0" function="internal">
        <lane id=":597021945_0_0" index="0" allow="delivery bicycle pedestrian" speed="5.56" length="5.16" shape="455.68,419.43 454.22,419.51 453.14,420.00 452.43,420.90 452.10,422.23"/>
    </edge>
    <edge id=":597021945_1" function="internal">
        <lane id=":597021945_1_0" index="0" allow="delivery bicycle pedestrian" speed="5.56" length="10.60" shape="455.68,419.43 452.83,418.78 450.92,417.37 449.96,415.20 449.94,412.27"/>
    </edge>
    <edge id=":597021945_2" function="internal">
        <lane id=":597021945_2_0" index="0" allow="delivery bicycle pedestrian" speed="5.56" length="4.82" shape="455.68,419.43 454.51,418.51 454.17,417.65 454.65,416.86 455.95,416.14"/>
    </edge>
    <edge id=":597021945_3" function="internal">
        <lane id=":597021945_3_0" index="0" allow="delivery bicycle pedestrian" speed="5.56" length="5.07" shape="453.21,412.72 453.22,414.12 453.68,415.16 454.59,415.83 455.95,416.14"/>
    </edge>
    <edge id=":597021945_4" function="internal">
        <lane id=":597021945_4_0" index="0" allow="delivery bicycle pedestrian" speed="5.56" length="9.57" shape="453.21,412.72 452.10,422.23"/>
    </edge>
    <edge id=":597021945_5" function="internal">
        <lane id=":597021945_5_0" index="0" allow="delivery bicycle pedestrian" speed="5.56" length="4.82" shape="453.21,412.72 452.22,413.84 451.35,414.13 450.59,413.61 449.94,412.27"/>
    </edge>
    <edge id=":597021945_6" function="internal">
        <lane id=":597021945_6_0" index="0" allow="delivery bicycle pedestrian" speed="5.56" length="9.71" shape="448.81,421.92 449.94,412.27"/>
    </edge>
    <edge id=":597021945_7" function="internal">
        <lane id=":597021945_7_0" index="0" allow="delivery bicycle pedestrian" speed="5.56" length="10.44" shape="448.81,421.92 449.48,419.19 450.90,417.32 453.05,416.30 455.95,416.14"/>
    </edge>
    <edge id=":597021945_8" function="internal">
        <lane id=":597021945_8_0" index="0" allow="delivery bicycle pedestrian" speed="5.56" length="4.82" shape="448.81,421.92 449.75,420.76 450.61,420.43 451.39,420.92 452.10,422.23"/>
    </edge>
    <edge id=":597021948_0" function="internal">
        <lane id=":597021948_0_0" index="0" allow="delivery bicycle pedestrian" speed="5.56" length="5.76" shape="519.60,433.37 518.06,432.62 516.90,432.68 516.12,433.54 515.73,435.22"/>
    </edge>
    <edge id=":597021948_1" function="internal">
        <lane id=":597021948_1_0" index="0" allow="delivery bicycle pedestrian" speed="5.56" length="11.64" shape="519.60,433.37 509.68,427.29"/>
    </edge>
    <edge id=":597021948_2" function="internal">
        <lane id=":597021948_2_0" index="0" allow="delivery bicycle pedestrian" speed="5.56" length="12.29" shape="519.60,433.37 516.72,430.99 515.07,428.48 514.64,425.84 515.44,423.08"/>
    </edge>
    <edge id=":597021948_3" function="internal">
        <lane id=":597021948_3_0" index="0" allow="delivery bicycle pedestrian" speed="5.56" length="4.82" shape="519.60,433.37 519.03,432.00 519.14,431.08 519.94,430.62 521.43,430.62"/>
    </edge>
    <edge id=":597021948_4" function="internal">
        <lane id=":597021948_4_0" index="0" allow="delivery bicycle pedestrian" speed="5.56" length="7.45" shape="518.40,424.55 518.01,426.07 518.39,427.59 519.53,429.11 521.43,430.62"/>
    </edge>
    <edge id=":597021948_5" function="internal">
        <lane id=":597021948_5_0" index="0" allow="delivery bicycle pedestrian" speed="5.56" length="11.09" shape="518.40,424.55 517.10,427.41 516.40,429.70 516.03,432.08 515.73,435.22"/>
    </edge>
    <edge id=":597021948_6" function="internal">
        <lane id=":597021948_6_0" index="0" allow="delivery bicycle pedestrian" speed="5.56" length="10.50" shape="518.40,424.55 516.75,426.93 514.75,428.18 512.39,428.30 509.68,427.29"/>
    </edge>
    <edge id=":597021948_7" function="internal">
        <lane id=":597021948_7_0" index="0" allow="delivery bicycle pedestrian" speed="5.56" length="4.82" shape="518.40,424.55 517.10,425.29 516.18,425.29 515.63,424.55 515.44,423.08"/>
    </edge>
    <edge id=":597021948_8" function="internal">
        <lane id=":597021948_8_0" index="0" allow="delivery bicycle pedestrian" speed="5.56" length="5.04" shape="511.26,424.39 512.56,424.87 513.69,424.82 514.65,424.22 515.44,423.08"/>
    </edge>
    <edge id=":597021948_9" function="internal">
        <lane id=":597021948_9_0" index="0" allow="delivery bicycle pedestrian" speed="5.56" length="11.92" shape="511.26,424.39 521.43,430.62"/>
    </edge>
    <edge id=":597021948_10" function="internal">
        <lane id=":597021948_10_0" index="0" allow="delivery bicycle pedestrian" speed="5.56" length="12.44" shape="511.26,424.39 513.50,426.13 514.99,428.52 515.74,431.55 515.73,435.22"/>
    </edge>
    <edge id=":597021948_11" function="internal">
        <lane id=":597021948_11_0" index="0" allow="delivery bicycle pedestrian" speed="5.56" length="4.82" shape="511.26,424.39 511.95,425.71 511.92,426.63 511.16,427.16 509.68,427.29"/>
    </edge>
    <edge id=":597021948_12" function="internal">
        <lane id=":597021948_12_0" index="0" allow="delivery bicycle pedestrian" speed="5.56" length="8.58" shape="512.45,434.91 512.48,432.25 512.03,430.10 511.10,428.44 509.68,427.29"/>
    </edge>
    <edge id=":597021948_13" function="internal">
        <lane id=":597021948_13_0" index="0" allow="delivery bicycle pedestrian" speed="5.56" length="12.29" shape="512.45,434.91 512.80,431.59 513.28,428.80 514.10,426.11 515.44,423.08"/>
    </edge>
    <edge id=":597021948_14" function="internal">
        <lane id=":597021948_14_0" index="0" allow="delivery bicycle pedestrian" speed="5.56" length="13.36" shape="512.45,434.91 513.35,431.02 515.15,429.02 517.84,428.88 521.43,430.62"/>
    </edge>
    <edge id=":597021948_15" function="internal">
        <lane id=":597021948_15_0" index="0" allow="delivery bicycle pedestrian" speed="5.56" length="4.82" shape="512.45,434.91 513.39,433.75 514.25,433.42 515.03,433.91 515.73,435.22"/>
    </edge>
    <edge id=":597021988_0" function="internal">
        <lane id=":597021988_0_0" index="0" allow="delivery bicycle pedestrian" speed="5.56" length="4.82" shape="435.51,606.69 434.60,607.87 433.75,608.22 432.96,607.74 432.22,606.45"/>
    </edge>
    <edge id=":597022001_0" function="internal">
        <lane id=":597022001_0_0" index="0" allow="delivery bicycle pedestrian" speed="5.56" length="7.74" shape="501.90,597.12 499.86,596.57 498.47,595.50 497.72,593.91 497.62,591.80"/>
    </edge>
    <edge id=":597022001_1" function="internal">
        <lane id=":597022001_1_0" index="0" allow="delivery bicycle pedestrian" speed="5.56" length="2.81" shape="501.90,597.12 500.78,596.15 500.47,595.28 500.69,594.95"/>
    </edge>
    <edge id=":597022001_4" function="internal">
        <lane id=":597022001_4_0" index="0" speed="5.56" length="2.01" shape="500.69,594.95 500.98,594.51 502.31,593.85"/>
    </edge>
    <edge id=":597022001_2" function="internal">
        <lane id=":597022001_2_0" index="0" allow="delivery bicycle pedestrian" speed="5.56" length="2.53" shape="500.91,592.11 500.94,592.80 501.19,593.32 501.64,593.67 502.31,593.85"/>
    </edge>
    <edge id=":597022001_3" function="internal">
        <lane id=":597022001_3_0" index="0" allow="delivery bicycle pedestrian" speed="5.56" length="2.20" shape="500.91,592.11 499.97,593.26 499.31,593.52"/>
    </edge>
    <edge id=":597022001_5" function="internal">
        <lane id=":597022001_5_0" index="0" speed="5.56" length="2.62" shape="499.31,593.52 499.11,593.59 498.33,593.11 497.62,591.80"/>
    </edge>
    <edge id=":761542971_0" function="internal">
        <lane id=":761542971_0_0" index="0" disallow="tram rail_urban rail rail_electric ship" speed="9.73" length="5.04" shape="320.47,314.61 319.12,314.27 318.01,314.44 317.11,315.13 316.44,316.34"/>
    </edge>
    <edge id=":761542971_1" function="internal">