<?xml version="1.0" encoding="UTF-8"?>

<!-- generated on Sun Apr  7 16:04:39 2019 by SUMO polyconvert Version dev-SVN-rUNKNOWN
<?xml version="1.0" encoding="UTF-8"?>

<configuration xmlns:xsi="http://www.w3.org/2001/XMLSchema-instance" xsi:noNamespaceSchemaLocation="http://sumo.dlr.de/xsd/polyconvertConfiguration.xsd">

    <input>
        <net-file value="01_davis.net.xml"/>
        <osm-files value="davis_drew_cowell_valdora.osm"/>
    </input>

    <output>
        <output-file value="02_davis.poly.xml"/>
    </output>

    <processing>
        <ignore-errors value="true"/>
        <poi-layer-offset value="5"/>
    </processing>

</configuration>
-->

<additional xmlns:xsi="http://www.w3.org/2001/XMLSchema-instance" xsi:noNamespaceSchemaLocation="http://sumo.dlr.de/xsd/additional_file.xsd">
    <location netOffset="-610624.98,-4266112.41" convBoundary="-139.15,-142.41,3132.62,1391.98" origBoundary="-121.732315,38.535171,-121.694558,38.548699" projParameter="+proj=utm +zone=10 +ellps=WGS84 +datum=WGS84 +units=m +no_defs"/>

    <poly id="32543016" type="parking" color="184,184,179" fill="1" layer="-1.00" shape="497.32,603.89 524.53,605.77 564.63,573.54 573.08,558.01 570.33,540.09 595.21,527.01 598.42,510.67 577.77,489.52 582.58,466.49 578.95,458.24 533.73,427.81 511.45,415.58 459.91,409.65 467.17,426.15 504.54,428.90 511.52,434.49 497.32,603.89"/>
    <poly id="46139072" type="building" color="255,230,230" fill="1" layer="-1.00" shape="422.18,334.33 407.91,334.14 407.58,357.83 421.86,358.03 422.18,334.33"/>
    <poly id="46139073" type="building" color="255,230,230" fill="1" layer="-1.00" shape="369.16,349.00 400.09,349.19 400.19,333.31 369.25,333.11 369.16,349.00"/>
    <poly id="46139079" type="building" color="255,230,230" fill="1" layer="-1.00" shape="275.83,356.21 291.06,356.14 290.90,325.03 275.67,325.11 275.83,356.21"/>
    <poly id="46139081" type="building" color="255,230,230" fill="1" layer="-1.00" shape="261.56,356.02 261.31,340.39 231.26,340.86 231.51,356.49 261.56,356.02"/>
    <poly id="46139299" type="building" color="255,230,230" fill="1" layer="-1.00" shape="448.66,353.27 476.83,353.66 477.00,340.76 448.84,340.37 448.66,353.27"/>
    <poly id="46139300" type="building" color="255,230,230" fill="1" layer="-1.00" shape="483.67,354.13 507.27,354.84 507.65,342.17 484.06,341.46 483.67,354.13"/>
    <poly id="46139301" type="building" color="255,230,230" fill="1" layer="-1.00" shape="512.58,356.23 536.94,356.57 537.14,342.16 512.78,341.83 512.58,356.23"/>
    <poly id="46139302" type="building" color="255,230,230" fill="1" layer="-1.00" shape="521.79,337.59 537.96,337.81 538.19,321.70 522.01,321.48 521.79,337.59"/>
    <poly id="46139303" type="building" color="255,230,230" fill="1" layer="-1.00" shape="485.43,337.46 499.70,337.66 499.94,320.79 485.66,320.60 485.43,337.46"/>
    <poly id="46139304" type="building" color="255,230,230" fill="1" layer="-1.00" shape="459.94,335.79 472.88,336.11 473.30,319.25 460.36,318.92 459.94,335.79"/>
    <poly id="46295099" type="residential" color="235,235,227" fill="1" layer="-3.00" shape="-47.03,355.99 -53.07,319.58 -51.51,273.96 -54.11,191.50 -53.68,58.77 -123.32,55.94 -139.12,48.28 -139.15,-16.93 -113.72,-29.61 -25.43,-26.81 -23.94,-30.21 112.32,-18.33 140.47,-33.38 196.88,-25.86 231.69,-16.46 254.89,-4.03 284.79,-1.75 346.50,-0.43 421.01,-11.50 523.63,-26.39 551.34,-34.38 602.17,-57.43 637.17,-86.75 675.09,-122.56 697.68,-132.95 754.40,-142.41 799.71,-139.45 852.40,-127.54 878.89,-115.53 920.75,-99.57 963.59,-85.95 992.14,-54.34 1037.26,-36.95 1092.16,-17.08 1134.36,8.66 1308.07,98.14 1488.00,174.22 1485.94,287.83 1484.63,314.82 1506.17,313.26 1521.21,307.42 1594.64,306.12 1686.91,296.23 1753.35,293.43 1928.24,288.49 2103.23,281.63 2244.08,275.22 2365.70,272.29 2702.78,278.91 2731.70,285.17 2737.71,285.92 2740.69,339.52 2748.55,428.34 2747.49,453.71 2739.74,489.23 2720.47,545.77 2694.98,612.01 2679.26,707.37 2828.18,713.79 2826.06,775.82 2852.30,785.13 2878.49,793.11 2927.00,793.18 3125.96,813.77 3126.62,813.84 3131.55,814.25 3129.76,869.41 3126.65,1187.42 3132.62,1373.39 3127.52,1382.05 3120.18,1388.38 3110.95,1391.98 3102.35,1391.97 3087.79,1388.74 3068.58,1383.22 3051.57,1370.76 3034.39,1362.60 2982.92,1332.07 2969.51,1321.63 2957.91,1314.95 2945.84,1309.65 2924.96,1298.18 2905.44,1289.99 2887.73,1285.55 2871.87,1283.00 2808.30,1281.63 2707.30,1281.14 2660.52,1282.80 2600.74,1310.82 2554.31,1320.87 2471.53,1322.03 2437.93,1317.84 2409.52,1309.98 2385.35,1299.40 2347.33,1276.97 2314.89,1256.03 2287.46,1244.93 2259.21,1238.02 2199.52,1227.31 2190.02,1225.40 2062.01,1250.61 1952.82,1268.63 1910.70,1271.29 1860.27,1265.94 1808.11,1251.23 1733.66,1225.51 1648.35,1207.08 1584.20,1213.64 1533.47,1229.69 1512.49,1240.67 1505.43,1246.41 1484.96,1255.08 1425.40,1267.75 1385.99,1268.73 1346.80,1266.59 1311.87,1259.27 1331.02,1195.76 1116.69,1130.32 1096.87,1186.35 1095.28,1183.75 960.06,1141.12 887.98,1112.64 835.28,1069.06 789.81,1009.76 761.79,940.46 753.36,907.28 738.88,805.55 724.91,700.58 713.32,625.91 704.19,575.95 678.80,518.79 650.83,478.82 605.21,430.68 553.90,388.06 484.99,366.14 395.21,356.58 291.90,363.46 127.66,370.98 -22.38,365.64 -47.03,355.99"/>
    <poly id="46702636" type="commercial" color="209,209,204" fill="1" layer="-3.00" shape="-23.00,392.41 -30.81,392.48 -37.44,394.17 -43.18,397.67 -46.95,401.29 -50.14,405.36 -51.95,411.85 -52.78,418.08 -52.94,474.26 -52.73,530.67 -53.05,664.45 -50.17,684.26 -40.12,707.90 -24.43,729.10 15.98,764.83 80.90,810.87 150.88,856.38 210.98,889.03 224.16,892.57 237.95,889.11 249.02,875.57 276.50,640.26 279.17,615.84 286.14,551.44 299.43,427.16 298.51,392.69 295.53,388.11 290.40,386.76 136.05,394.61 86.59,396.65 42.54,396.74 10.53,395.63 -23.00,392.41"/>
    <poly id="46702637" type="parking" color="184,184,179" fill="1" layer="-1.00" shape="137.20,433.65 223.53,429.49 225.32,443.95 242.39,460.26 255.82,461.72 246.63,551.12 260.77,551.67 262.07,533.76 280.42,533.78 286.44,487.53 268.26,475.51 269.29,468.31 282.09,455.34 289.97,460.10 289.08,423.41 257.46,393.75 149.55,397.24 150.04,403.93 137.99,403.82 137.20,433.65"/>
    <poly id="46703154" type="landuse" color="194,194,130" fill="1" layer="-3.00" shape="441.22,390.87 410.72,702.46 442.03,703.83 454.79,694.69 543.98,602.32 588.41,567.54 634.08,541.90 640.60,537.94 645.40,528.35 644.99,518.09 630.54,495.00 609.07,473.24 584.47,448.07 513.30,407.95 472.38,392.33 441.22,390.87"/>
    <poly id="46703155" type="commercial" color="209,209,204" fill="1" layer="-3.00" shape="438.45,388.50 407.48,704.10 409.96,718.49 407.66,744.61 403.59,795.93 381.15,946.99 370.18,962.21 273.87,921.30 267.57,912.60 264.35,908.25 262.45,901.93 264.46,892.18 270.55,874.22 299.56,612.75 307.24,539.27 314.09,488.30 320.11,391.06 361.32,386.50 438.45,388.50"/>
    <poly id="46703158" type="parking" color="184,184,179" fill="1" layer="-1.00" shape="401.96,400.69 438.91,402.18 425.70,512.78 319.81,501.30 320.71,483.22 392.94,489.71 401.96,400.69"/>
    <poly id="46703167" type="building" color="255,230,230" fill="1" layer="-1.00" shape="325.17,417.74 344.66,419.88 345.92,413.15 351.76,414.16 389.08,412.22 389.61,407.81 393.23,407.51 394.83,393.56 391.08,393.97 391.22,392.58 353.68,394.15 353.53,395.55 340.90,396.07 339.93,398.73 326.98,397.17 325.17,417.74"/>
    <poly id="46742966" type="building" color="255,230,230" fill="1" layer="-1.00" shape="596.79,421.38 607.77,405.22 586.49,390.22 562.08,387.47 558.37,393.70 596.79,421.38"/>
    <poly id="46742967" type="building" color="255,230,230" fill="1" layer="-1.00" shape="556.02,374.01 571.30,381.23 579.85,363.26 564.58,356.04 556.02,374.01"/>
</additional>
