<?xml version="1.0" encoding="UTF-8"?>

<!-- generated on Sun Apr  7 16:53:20 2019 by SUMO polyconvert Version dev-SVN-rUNKNOWN
<?xml version="1.0" encoding="UTF-8"?>

<configuration xmlns:xsi="http://www.w3.org/2001/XMLSchema-instance" xsi:noNamespaceSchemaLocation="http://sumo.dlr.de/xsd/polyconvertConfiguration.xsd">

    <input>
        <net-file value="01_sf_anza.net.xml"/>
        <osm-files value="anza_25th.osm"/>
    </input>

    <output>
        <output-file value="02_sf_anza.poly.xml"/>
    </output>

    <processing>
        <poi-layer-offset value="5"/>
    </processing>

</configuration>
-->

<additional xmlns:xsi="http://www.w3.org/2001/XMLSchema-instance" xsi:noNamespaceSchemaLocation="http://sumo.dlr.de/xsd/additional_file.xsd">
    <location netOffset="-544914.18,-4181148.80" convBoundary="-0.00,0.00,1558.85,358.46" origBoundary="-122.489969,37.776554,-122.472262,37.779786" projParameter="+proj=utm +zone=10 +ellps=WGS84 +datum=WGS84 +units=m +no_defs"/>

    <poly id="278421922" type="building" color="255,230,230" fill="1" layer="-1.00" shape="514.54,154.80 507.17,154.36 507.00,157.02 508.25,157.10 508.08,159.98 506.83,159.90 506.25,169.32 510.52,169.60 510.50,169.91 513.61,170.09 514.54,154.80"/>
    <poly id="278421925" type="building" color="255,230,230" fill="1" layer="-1.00" shape="481.45,222.77 481.02,230.24 490.22,230.78 491.17,230.84 491.28,229.04 498.08,229.43 498.34,225.00 491.80,224.62 491.85,223.19 488.54,223.05 481.45,222.77"/>
    <poly id="278421933" type="building" color="255,230,230" fill="1" layer="-1.00" shape="552.35,218.83 542.10,218.22 541.90,221.44 538.72,221.26 538.49,225.11 541.46,225.29 541.40,226.34 542.30,226.42 553.25,227.08 553.65,220.72 552.25,220.63 552.35,218.83"/>
    <poly id="278421935" type="building" color="255,230,230" fill="1" layer="-1.00" shape="551.47,234.93 542.47,234.38 542.44,234.82 538.37,234.57 538.34,235.26 535.88,235.11 535.64,239.06 537.93,239.20 537.78,241.61 551.26,242.34 551.47,234.93"/>
    <poly id="278421954" type="building" color="255,230,230" fill="1" layer="-1.00" shape="538.41,195.23 538.00,201.32 541.52,201.55 541.41,203.34 551.71,204.01 551.74,203.53 554.57,203.59 554.60,201.73 552.60,201.60 552.64,200.99 551.82,200.94 552.14,196.12 538.41,195.23"/>
    <poly id="278421956" type="building" color="255,230,230" fill="1" layer="-1.00" shape="480.18,214.98 481.17,214.87 495.88,216.00 495.98,214.65 499.51,214.88 499.84,209.93 497.32,209.76 497.42,208.32 490.18,207.89 488.97,207.80 480.66,207.26 480.18,214.98"/>
    <poly id="278421962" type="building" color="255,230,230" fill="1" layer="-1.00" shape="553.25,227.08 542.30,226.42 542.19,228.31 536.69,227.98 536.81,226.11 526.00,225.46 525.53,233.08 537.20,233.78 537.37,230.92 541.63,231.17 541.46,234.03 552.78,234.72 553.25,227.08"/>
    <poly id="278421964" type="building" color="255,230,230" fill="1" layer="-1.00" shape="499.69,152.82 492.07,152.36 491.92,154.23 491.50,161.17 491.10,168.24 495.06,168.47 495.11,167.67 498.84,167.90 499.23,161.63 499.37,159.86 499.74,153.91 499.69,152.82"/>
    <poly id="278421968" type="building" color="255,230,230" fill="1" layer="-1.00" shape="482.84,168.39 491.02,168.88 491.10,168.24 491.50,161.17 488.23,160.98 488.35,159.10 490.82,159.25 491.01,156.03 488.54,155.88 488.66,154.03 491.92,154.23 492.07,152.36 492.42,146.14 484.22,145.65 482.84,168.39"/>
    <poly id="278421970" type="building" color="255,230,230" fill="1" layer="-1.00" shape="507.17,154.36 499.74,153.91 499.37,159.86 499.77,159.89 499.66,161.65 499.23,161.63 498.84,167.90 498.76,169.18 502.13,169.39 502.15,169.08 506.25,169.32 506.83,159.90 507.00,157.02 507.17,154.36"/>
    <poly id="278421972" type="building" color="255,230,230" fill="1" layer="-1.00" shape="557.49,126.84 557.21,126.83 557.35,124.51 556.96,124.49 557.01,123.59 542.94,122.73 541.17,122.62 541.07,124.14 542.23,124.22 542.09,126.68 543.35,126.76 543.12,130.50 557.21,131.36 557.49,126.84"/>
    <poly id="278421975" type="building" color="255,230,230" fill="1" layer="-1.00" shape="552.77,242.52 542.88,241.92 542.80,243.32 532.71,242.71 532.82,240.95 523.04,240.36 522.56,248.20 552.32,249.99 552.52,250.01 552.69,247.07 551.66,247.00 551.78,245.12 552.75,245.18 552.91,242.53 552.77,242.52"/>
    <poly id="278421985" type="building" color="255,230,230" fill="1" layer="-1.00" shape="545.79,171.04 546.76,155.22 545.68,155.16 545.88,151.92 541.66,151.66 541.61,152.45 539.83,152.34 539.24,162.04 538.15,161.96 537.57,170.56 539.26,170.66 539.83,171.06 541.60,171.16 542.50,170.84 545.79,171.04"/>
    <poly id="278422017" type="building" color="255,230,230" fill="1" layer="-1.00" shape="537.57,170.56 538.15,161.96 536.80,161.92 537.25,154.61 535.55,154.51 535.76,151.04 531.52,150.79 531.31,154.18 530.41,154.12 530.08,159.52 530.02,160.41 529.47,169.38 529.43,170.06 532.42,170.24 533.22,170.87 535.44,171.00 536.11,170.47 537.57,170.56"/>
    <poly id="278422025" type="building" color="255,230,230" fill="1" layer="-1.00" shape="522.21,194.85 521.69,202.88 523.10,202.97 522.91,205.83 521.50,205.73 520.97,213.82 527.52,214.24 527.63,212.69 529.10,211.87 529.31,205.55 527.56,205.56 527.78,201.77 529.55,201.89 530.00,195.07 528.91,194.12 526.39,193.95 526.32,195.12 522.21,194.85"/>
    <poly id="278422033" type="building" color="255,230,230" fill="1" layer="-1.00" shape="499.85,231.50 491.17,230.84 491.07,234.02 490.00,233.96 490.22,230.78 481.02,230.24 480.59,230.24 480.09,237.87 480.34,237.96 490.04,238.52 490.25,235.37 491.04,235.42 490.83,238.57 499.59,238.74 499.61,235.18 500.48,234.44 500.60,232.71 499.81,232.07 499.85,231.50"/>
    <poly id="278422039" type="building" color="255,230,230" fill="1" layer="-1.00" shape="514.01,167.67 517.55,167.88 518.01,168.60 520.32,168.74 520.91,168.09 521.58,168.13 521.96,161.86 519.16,161.69 519.23,160.49 522.03,160.65 522.14,158.87 522.29,156.38 522.61,151.23 522.25,151.21 522.35,149.63 515.60,149.21 515.50,150.83 515.04,150.81 514.01,167.67"/>
    <poly id="278422053" type="building" color="255,230,230" fill="1" layer="-1.00" shape="503.34,203.76 500.41,203.56 500.52,201.96 499.69,201.04 481.50,199.86 480.35,200.68 480.25,202.16 481.14,202.98 481.08,203.84 480.08,204.84 479.99,206.30 480.66,207.26 488.97,207.80 489.20,204.28 490.41,204.36 490.18,207.89 497.42,208.32 500.20,208.53 500.30,207.07 503.11,207.25 503.34,203.76"/>
    <poly id="278422057" type="building" color="255,230,230" fill="1" layer="-1.00" shape="557.44,154.38 547.19,153.76 546.78,160.38 548.73,160.50 548.44,165.36 546.49,165.24 546.08,171.90 552.20,172.27 553.11,172.96 554.76,173.06 555.27,172.45 556.34,172.53 556.69,172.54 556.74,171.82 557.39,171.44 557.49,169.91 556.54,169.14 557.22,158.13 558.09,157.43 558.16,156.17 557.40,155.11 557.44,154.38"/>
    <poly id="278422069" type="building" color="255,230,230" fill="1" layer="-1.00" shape="521.53,168.91 522.12,168.94 522.59,169.62 524.11,169.71 524.87,169.10 526.19,169.19 526.70,169.87 528.18,169.95 528.90,169.35 529.47,169.38 530.02,160.41 528.79,160.34 528.85,159.44 530.08,159.52 530.41,154.12 530.57,151.45 522.62,150.97 522.61,151.23 522.29,156.38 523.30,157.25 523.25,158.14 522.14,158.87 522.03,160.65 521.96,161.86 521.58,168.13 521.53,168.91"/>
    <poly id="278422074" type="building" color="255,230,230" fill="1" layer="-1.00" shape="500.54,144.87 504.15,145.09 504.52,139.10 500.90,138.88 500.54,144.87"/>
    <poly id="278422076" type="building" color="255,230,230" fill="1" layer="-1.00" shape="558.00,149.02 548.51,148.45 548.28,152.32 557.76,152.90 558.00,149.02"/>
    <poly id="278422079" type="building" color="255,230,230" fill="1" layer="-1.00" shape="535.70,195.21 530.11,195.05 529.73,201.38 535.48,201.66 535.70,195.21"/>
    <poly id="278422095" type="building" color="255,230,230" fill="1" layer="-1.00" shape="558.42,140.34 542.84,139.40 542.35,147.51 556.96,148.40 557.21,144.28 558.18,144.34 558.42,140.34"/>
    <poly id="278422097" type="building" color="255,230,230" fill="1" layer="-1.00" shape="502.10,121.79 486.29,120.82 486.05,124.64 487.23,124.71 487.00,128.52 501.63,129.41 502.10,121.79"/>
    <poly id="278422098" type="building" color="255,230,230" fill="1" layer="-1.00" shape="501.35,130.69 486.08,129.77 485.85,133.56 486.59,133.60 486.33,137.66 500.88,138.53 501.35,130.69"/>
    <poly id="278422099" type="building" color="255,230,230" fill="1" layer="-1.00" shape="514.31,196.96 513.51,209.15 518.16,209.45 518.04,211.43 521.10,211.62 522.03,197.46 514.31,196.96"/>
    <poly id="278422100" type="building" color="255,230,230" fill="1" layer="-1.00" shape="506.68,193.06 481.56,191.42 481.00,199.89 481.50,199.86 499.69,201.04 506.12,201.53 506.68,193.06"/>
    <poly id="278422105" type="building" color="255,230,230" fill="1" layer="-1.00" shape="558.21,131.37 557.21,131.36 543.12,130.50 537.89,130.14 537.41,137.85 557.10,139.04 557.35,135.05 557.98,135.09 558.21,131.37"/>
    <poly id="278422113" type="building" color="255,230,230" fill="1" layer="-1.00" shape="552.39,204.15 542.91,203.53 542.70,206.81 539.24,206.59 539.02,209.82 542.58,210.05 542.53,210.79 552.25,211.30 552.39,204.15"/>
    <poly id="278422117" type="building" color="255,230,230" fill="1" layer="-1.00" shape="497.11,215.91 495.88,216.00 481.17,214.87 480.65,222.69 481.45,222.77 488.54,223.05 488.56,222.80 496.56,223.40 497.11,215.91"/>
    <poly id="278422123" type="building" color="255,230,230" fill="1" layer="-1.00" shape="479.96,245.46 489.79,246.04 489.95,243.77 493.08,243.96 493.36,239.69 490.24,239.49 490.30,238.61 490.04,238.52 480.34,237.96 479.96,245.46"/>
    <poly id="278422127" type="building" color="255,230,230" fill="1" layer="-1.00" shape="554.07,211.79 542.46,211.09 542.39,212.13 539.27,211.94 539.04,215.78 542.24,215.97 542.10,218.22 552.35,218.83 553.63,218.91 554.07,211.79"/>
    <poly id="286456771" type="building" color="255,230,230" fill="1" layer="-1.00" shape="386.23,208.34 398.32,209.08 398.55,205.30 398.94,199.09 394.07,198.79 394.21,196.43 399.08,196.73 399.11,196.36 399.71,186.70 387.62,185.95 386.23,208.34"/>
    <poly id="286456774" type="building" color="255,230,230" fill="1" layer="-1.00" shape="458.42,228.52 458.89,220.75 451.90,220.34 451.54,220.31 451.47,221.37 444.71,220.95 444.44,225.19 444.29,227.66 449.22,227.97 452.42,228.15 458.42,228.52"/>
    <poly id="286456775" type="building" color="255,230,230" fill="1" layer="-1.00" shape="423.33,188.97 422.82,197.22 422.67,199.59 422.24,206.55 428.75,206.95 429.18,199.95 427.71,199.85 427.86,197.55 429.33,197.63 429.84,189.37 423.33,188.97"/>
    <poly id="286456776" type="building" color="255,230,230" fill="1" layer="-1.00" shape="459.75,205.69 460.22,198.06 453.27,197.64 451.14,197.51 451.00,199.73 448.21,199.57 447.98,203.54 450.76,203.71 450.67,205.14 451.06,205.16 459.75,205.69"/>
    <poly id="286456779" type="building" color="255,230,230" fill="1" layer="-1.00" shape="416.85,188.57 416.32,197.17 416.18,199.41 415.76,206.15 422.24,206.55 422.67,199.59 421.36,199.51 421.51,197.15 422.82,197.22 423.33,188.97 416.85,188.57"/>
    <poly id="286456786" type="building" color="255,230,230" fill="1" layer="-1.00" shape="409.23,205.95 415.75,206.36 415.76,206.15 416.18,199.41 414.73,199.33 414.88,197.08 416.32,197.17 416.85,188.57 410.34,188.16 409.99,193.75 409.76,197.48 409.23,205.95"/>
    <poly id="286456789" type="building" color="255,230,230" fill="1" layer="-1.00" shape="405.36,225.14 396.36,224.60 393.70,224.44 385.73,223.97 385.26,231.59 385.75,231.61 408.11,232.95 408.31,229.54 412.26,229.78 412.44,226.75 408.50,226.52 408.57,225.33 405.36,225.14"/>
    <poly id="286456794" type="building" color="255,230,230" fill="1" layer="-1.00" shape="444.71,220.95 444.79,219.45 454.87,220.06 455.30,213.10 449.40,212.74 448.04,212.66 444.71,212.45 444.58,214.53 441.19,214.32 440.90,219.21 441.46,219.24 441.10,224.99 444.44,225.19 444.71,220.95"/>
    <poly id="286456800" type="building" color="255,230,230" fill="1" layer="-1.00" shape="399.71,186.70 399.11,196.36 403.85,196.65 403.77,198.01 399.02,197.72 398.94,199.09 398.55,205.30 409.23,205.95 409.76,197.48 408.89,197.42 409.12,193.69 409.99,193.75 410.34,188.16 410.42,186.88 399.74,186.22 399.71,186.70"/>
    <poly id="286456805" type="building" color="255,230,230" fill="1" layer="-1.00" shape="408.11,232.95 385.75,231.61 384.72,232.54 384.62,234.31 385.54,235.22 385.50,235.85 384.54,236.35 384.45,238.05 385.30,239.14 396.94,239.84 397.04,238.24 401.38,238.50 401.28,240.07 413.90,240.83 415.60,240.93 416.05,233.43 408.11,232.95"/>
    <poly id="286456806" type="building" color="255,230,230" fill="1" layer="-1.00" shape="444.71,212.45 448.04,212.66 448.17,210.36 449.54,210.45 449.40,212.74 455.30,213.10 459.29,213.33 459.75,205.69 451.06,205.16 450.97,206.71 448.35,206.55 448.45,205.01 442.19,204.63 441.91,209.24 438.57,209.05 438.39,212.07 444.71,212.45"/>
    <poly id="286456809" type="building" color="255,230,230" fill="1" layer="-1.00" shape="460.22,198.06 460.80,198.09 461.30,189.85 439.05,188.52 439.01,189.23 434.64,188.96 434.37,193.54 438.73,193.80 438.54,196.74 445.95,197.18 446.17,193.64 448.36,193.78 448.20,196.35 451.37,196.55 451.52,193.97 453.49,194.09 453.27,197.64 460.22,198.06"/>
    <poly id="286456817" type="building" color="255,230,230" fill="1" layer="-1.00" shape="436.97,242.54 444.99,243.03 445.06,241.97 447.30,242.11 447.23,243.16 456.93,243.74 456.95,243.40 457.95,243.46 458.37,236.58 457.35,236.52 457.37,236.22 449.77,235.77 448.99,235.72 448.91,236.98 442.74,236.61 442.82,235.35 439.09,235.13 437.42,235.04 437.31,236.90 434.34,236.72 434.11,240.58 437.08,240.76 436.97,242.54"/>
    <poly id="286456818" type="building" color="255,230,230" fill="1" layer="-1.00" shape="384.58,223.89 385.73,223.97 393.70,224.44 393.97,219.97 396.63,220.13 396.36,224.60 405.36,225.14 405.95,215.36 405.46,214.42 405.55,212.76 401.20,212.49 401.14,213.61 399.72,213.53 399.79,212.40 397.06,212.23 396.83,215.92 394.09,215.75 394.31,212.06 391.59,211.90 391.53,212.90 390.19,212.82 390.24,211.81 385.32,211.52 384.58,223.89"/>
    <poly id="286456819" type="building" color="255,230,230" fill="1" layer="-1.00" shape="385.30,239.14 384.66,239.11 384.36,244.02 385.51,244.09 385.17,249.64 384.04,249.56 383.75,254.33 396.81,255.12 397.04,251.49 399.50,251.64 399.29,255.24 401.55,255.38 412.99,256.06 413.27,251.50 412.22,251.44 412.57,245.72 413.60,245.78 413.90,240.83 401.28,240.07 400.45,240.02 400.24,243.60 397.52,243.44 397.74,239.89 396.94,239.84 385.30,239.14"/>
    <poly id="286456820" type="building" color="255,230,230" fill="1" layer="-1.00" shape="457.37,236.22 457.95,236.26 457.99,235.75 458.68,235.44 458.81,233.46 458.15,233.03 458.21,231.98 459.05,231.56 459.18,229.52 458.39,229.12 458.42,228.52 452.42,228.15 452.36,229.06 449.16,228.86 449.22,227.97 444.29,227.66 439.55,227.38 439.34,230.92 435.71,230.70 435.56,233.28 439.18,233.50 439.09,235.13 442.82,235.35 443.01,235.37 443.10,233.74 449.30,234.11 449.32,233.78 449.88,233.82 449.77,235.77 457.37,236.22"/>
    <poly id="286456828" type="building" color="255,230,230" fill="1" layer="-1.00" shape="442.70,250.05 456.17,250.86 456.56,244.49 443.08,243.70 442.95,245.92 440.24,245.76 440.06,248.75 442.76,248.91 442.70,250.05"/>
    <poly id="286471081" type="building" color="255,230,230" fill="1" layer="-1.00" shape="423.57,143.13 421.01,142.98 421.25,139.25 417.33,139.02 417.10,142.74 413.05,142.50 411.81,163.07 412.25,163.10 412.24,163.41 417.62,163.74 417.64,163.42 422.31,163.71 423.57,143.13"/>
    <poly id="286471088" type="building" color="255,230,230" fill="1" layer="-1.00" shape="433.77,154.19 434.17,147.54 434.40,143.78 430.72,143.56 430.95,139.98 426.81,139.74 426.59,143.32 423.57,143.13 422.31,163.71 427.49,164.02 427.46,164.46 432.58,164.76 432.61,164.32 433.15,164.36 433.77,154.19"/>
    <poly id="286471099" type="building" color="255,230,230" fill="1" layer="-1.00" shape="443.76,165.43 444.35,155.76 442.91,155.67 443.25,150.09 439.46,149.86 439.60,147.65 444.83,147.97 445.25,141.01 434.61,140.37 434.40,143.78 434.17,147.54 435.72,147.64 435.31,154.28 433.77,154.19 433.15,164.36 433.13,164.79 443.76,165.43"/>
    <poly id="286471105" type="building" color="255,230,230" fill="1" layer="-1.00" shape="399.09,147.12 390.45,146.64 389.82,146.60 389.58,150.88 389.96,150.91 389.78,154.22 399.61,154.76 399.66,153.92 400.46,153.97 400.41,154.79 404.20,155.00 404.28,153.51 407.32,153.69 407.49,150.59 404.43,150.43 404.54,148.54 399.03,148.24 399.09,147.12"/>
    <poly id="286471108" type="building" color="255,230,230" fill="1" layer="-1.00" shape="400.24,139.63 390.87,139.10 390.68,142.72 390.16,143.05 390.02,145.71 390.49,146.08 390.45,146.64 399.09,147.12 399.16,146.03 404.59,146.33 404.69,144.52 405.86,144.58 405.83,145.16 407.74,145.26 407.93,141.64 404.86,141.47 404.95,139.89 401.07,139.67 401.02,140.58 400.19,140.53 400.24,139.63"/>
    <poly id="286471111" type="building" color="255,230,230" fill="1" layer="-1.00" shape="463.72,129.39 463.94,125.63 464.72,125.68 464.96,121.51 451.44,120.71 437.31,119.87 437.05,124.13 437.73,124.16 437.50,127.82 440.87,128.03 441.00,125.73 445.97,126.04 445.83,128.32 449.58,128.54 450.81,128.62 454.31,128.82 455.61,128.90 455.76,126.54 460.85,126.84 460.70,129.20 463.72,129.39"/>
    <poly id="286471112" type="building" color="255,230,230" fill="1" layer="-1.00" shape="463.99,136.89 464.23,132.93 463.51,132.89 463.72,129.39 460.70,129.20 455.61,128.90 455.56,129.86 454.25,129.79 454.31,128.82 450.81,128.62 450.76,129.44 449.53,129.38 449.58,128.54 445.83,128.32 440.87,128.03 440.42,135.48 450.75,136.09 450.90,133.61 454.03,133.79 453.88,136.29 463.99,136.89"/>
    <poly id="286471113" type="building" color="255,230,230" fill="1" layer="-1.00" shape="401.08,124.19 391.94,123.69 391.51,131.47 400.05,131.94 400.12,130.77 405.24,131.05 405.18,132.23 406.40,132.29 406.45,131.45 408.97,131.58 408.92,132.44 410.45,132.51 410.63,129.29 408.90,129.20 409.07,126.17 405.85,125.98 405.93,124.46 402.52,124.27 401.97,124.24 401.91,125.29 401.02,125.24 401.08,124.19"/>
    <poly id="286471118" type="building" color="255,230,230" fill="1" layer="-1.00" shape="389.78,154.22 389.61,157.25 388.83,157.90 388.66,160.99 389.02,161.32 388.97,162.37 390.12,162.45 390.69,163.19 393.47,163.35 393.77,162.63 395.14,162.71 395.62,163.17 398.32,163.32 398.98,162.90 406.69,163.34 407.06,156.68 404.11,156.52 404.20,155.00 400.41,154.79 400.12,154.78 400.07,155.69 399.56,155.66 399.61,154.76 389.78,154.22"/>
    <poly id="286471121" type="building" color="255,230,230" fill="1" layer="-1.00" shape="394.97,116.45 391.59,116.26 391.51,117.67 391.01,118.19 390.79,118.96 390.62,119.72 390.61,120.53 390.76,121.54 391.25,122.42 391.18,123.65 391.94,123.69 401.08,124.19 401.13,123.34 402.57,123.43 402.52,124.27 405.93,124.46 410.40,124.71 410.48,123.06 412.99,123.19 413.19,119.50 410.69,119.35 410.81,117.33 406.09,117.06 404.05,116.95 403.98,118.20 400.61,118.01 400.68,116.77 394.97,116.45"/>
    <poly id="286471122" type="building" color="255,230,230" fill="1" layer="-1.00" shape="401.07,139.67 404.95,139.89 407.49,140.03 408.23,139.07 408.32,137.50 410.92,137.64 411.00,135.95 411.62,135.28 411.73,133.45 411.17,133.03 411.20,132.56 410.45,132.51 408.92,132.44 406.81,132.31 406.74,133.54 399.98,133.17 400.05,131.94 391.51,131.47 390.83,131.44 390.81,131.82 390.22,132.29 389.91,137.92 390.44,138.44 390.41,139.08 390.87,139.10 400.24,139.63 401.07,139.67"/>
    <poly id="286471124" type="building" color="255,230,230" fill="1" layer="-1.00" shape="454.39,167.26 462.67,167.76 463.78,149.70 459.37,149.43 459.43,148.61 455.54,148.37 454.39,167.26"/>
    <poly id="286471127" type="building" color="255,230,230" fill="1" layer="-1.00" shape="454.59,144.77 463.48,145.31 463.97,137.26 455.08,136.72 455.06,136.96 451.27,136.73 450.82,144.21 454.61,144.43 454.59,144.77"/>
    <poly id="286471131" type="building" color="255,230,230" fill="1" layer="-1.00" shape="444.78,148.75 444.35,155.76 443.76,165.43 453.66,166.02 454.07,159.16 452.98,159.10 453.16,156.10 454.26,156.17 454.67,149.35 444.78,148.75"/>
</additional>
